# generated using pymatgen
data_HC
_symmetry_space_group_name_H-M   'P 1'
_cell_length_a   11.28199681
_cell_length_b   7.51736100
_cell_length_c   16.46172990
_cell_angle_alpha   90.00000000
_cell_angle_beta   115.67413156
_cell_angle_gamma   90.00000000
_symmetry_Int_Tables_number   1
_chemical_formula_structural   HC
_chemical_formula_sum   'H64 C64'
_cell_volume   1258.29675792
_cell_formula_units_Z   64
loop_
 _symmetry_equiv_pos_site_id
 _symmetry_equiv_pos_as_xyz
  1  'x, y, z'
loop_
 _atom_site_type_symbol
 _atom_site_label
 _atom_site_symmetry_multiplicity
 _atom_site_fract_x
 _atom_site_fract_y
 _atom_site_fract_z
 _atom_site_occupancy
  C  C1  1  0.491241  0.986486  0.750743  1
  C  C2  1  0.508759  0.013514  0.249257  1
  C  C3  1  0.508759  0.486486  0.749257  1
  C  C4  1  0.491241  0.513514  0.250743  1
  C  C5  1  0.403074  0.117783  0.772348  1
  C  C6  1  0.596926  0.882217  0.227652  1
  C  C7  1  0.596926  0.617783  0.727652  1
  C  C8  1  0.403074  0.382217  0.272348  1
  C  C9  1  0.488100  0.244054  0.850364  1
  C  C10  1  0.511900  0.755946  0.149636  1
  C  C11  1  0.511900  0.744054  0.649636  1
  C  C12  1  0.488100  0.255946  0.350364  1
  C  C13  1  0.584729  0.362432  0.830461  1
  C  C14  1  0.415271  0.637568  0.169539  1
  C  C15  1  0.415271  0.862432  0.669539  1
  C  C16  1  0.584729  0.137568  0.330461  1
  C  C17  1  0.303126  0.021252  0.795381  1
  C  C18  1  0.696874  0.978748  0.204619  1
  C  C19  1  0.696874  0.521252  0.704619  1
  C  C20  1  0.303126  0.478748  0.295381  1
  C  C21  1  0.345110  0.899544  0.867021  1
  C  C22  1  0.654890  0.100456  0.132979  1
  C  C23  1  0.654890  0.399544  0.632979  1
  C  C24  1  0.345110  0.600456  0.367021  1
  C  C25  1  0.255248  0.811471  0.890097  1
  C  C26  1  0.744752  0.188529  0.109903  1
  C  C27  1  0.744752  0.311471  0.609903  1
  C  C28  1  0.255248  0.688529  0.390097  1
  C  C29  1  0.120677  0.847443  0.842863  1
  C  C30  1  0.879323  0.152557  0.157137  1
  C  C31  1  0.879323  0.347443  0.657137  1
  C  C32  1  0.120677  0.652557  0.342863  1
  C  C33  1  0.076987  0.968849  0.771521  1
  C  C34  1  0.923013  0.031151  0.228479  1
  C  C35  1  0.923013  0.468849  0.728479  1
  C  C36  1  0.076987  0.531151  0.271521  1
  C  C37  1  0.167993  0.054159  0.747826  1
  C  C38  1  0.832007  0.945841  0.252174  1
  C  C39  1  0.832007  0.554159  0.752174  1
  C  C40  1  0.167993  0.445841  0.247826  1
  C  C41  1  0.670442  0.469454  0.913454  1
  C  C42  1  0.329558  0.530546  0.086546  1
  C  C43  1  0.329558  0.969454  0.586546  1
  C  C44  1  0.670442  0.030546  0.413454  1
  C  C45  1  0.615431  0.603919  0.945516  1
  C  C46  1  0.384569  0.396081  0.054484  1
  C  C47  1  0.384569  0.103919  0.554484  1
  C  C48  1  0.615431  0.896081  0.445516  1
  C  C49  1  0.694426  0.711784  0.017736  1
  C  C50  1  0.305574  0.288216  0.982264  1
  C  C51  1  0.305574  0.211784  0.482264  1
  C  C52  1  0.694426  0.788216  0.517736  1
  C  C53  1  0.830061  0.681043  0.062137  1
  C  C54  1  0.169939  0.318957  0.937863  1
  C  C55  1  0.169939  0.181043  0.437863  1
  C  C56  1  0.830061  0.818957  0.562137  1
  C  C57  1  0.884669  0.541990  0.033459  1
  C  C58  1  0.115331  0.458010  0.966541  1
  C  C59  1  0.115331  0.041990  0.466541  1
  C  C60  1  0.884669  0.958010  0.533459  1
  C  C61  1  0.805846  0.438583  0.958868  1
  C  C62  1  0.194154  0.561417  0.041132  1
  C  C63  1  0.194154  0.938583  0.541132  1
  C  C64  1  0.805846  0.061417  0.458868  1
  H  H65  1  0.563703  0.060931  0.736419  1
  H  H66  1  0.452076  0.092767  0.188813  1
  H  H67  1  0.436297  0.560931  0.763581  1
  H  H68  1  0.547924  0.592767  0.311187  1
  H  H69  1  0.422781  0.330852  0.866291  1
  H  H70  1  0.455883  0.835512  0.088920  1
  H  H71  1  0.577219  0.830852  0.633709  1
  H  H72  1  0.544117  0.335512  0.411080  1
  H  H73  1  0.449428  0.876792  0.906106  1
  H  H74  1  0.550572  0.123208  0.093894  1
  H  H75  1  0.550572  0.376792  0.593894  1
  H  H76  1  0.449428  0.623208  0.406106  1
  H  H77  1  0.289870  0.717104  0.945102  1
  H  H78  1  0.710130  0.282896  0.054898  1
  H  H79  1  0.710130  0.217104  0.554898  1
  H  H80  1  0.289870  0.782896  0.445102  1
  H  H81  1  0.051280  0.782760  0.862496  1
  H  H82  1  0.948720  0.217240  0.137504  1
  H  H83  1  0.948720  0.282760  0.637504  1
  H  H84  1  0.051280  0.717240  0.362496  1
  H  H85  1  0.972873  0.998219  0.735010  1
  H  H86  1  0.027127  0.001781  0.264990  1
  H  H87  1  0.027127  0.498219  0.764990  1
  H  H88  1  0.972873  0.501781  0.235010  1
  H  H89  1  0.134769  0.149039  0.692581  1
  H  H90  1  0.865231  0.850961  0.307419  1
  H  H91  1  0.865231  0.649039  0.807419  1
  H  H92  1  0.134769  0.350961  0.192581  1
  H  H93  1  0.510043  0.624861  0.912792  1
  H  H94  1  0.489957  0.375139  0.087208  1
  H  H95  1  0.489957  0.124861  0.587208  1
  H  H96  1  0.510043  0.875139  0.412792  1
  H  H97  1  0.651311  0.819167  0.039634  1
  H  H98  1  0.348689  0.180833  0.960366  1
  H  H99  1  0.348689  0.319167  0.460366  1
  H  H100  1  0.651311  0.680833  0.539634  1
  H  H101  1  0.891778  0.763175  0.118680  1
  H  H102  1  0.108222  0.236825  0.881320  1
  H  H103  1  0.108222  0.263175  0.381320  1
  H  H104  1  0.891778  0.736825  0.618680  1
  H  H105  1  0.988550  0.514296  0.069290  1
  H  H106  1  0.011450  0.485704  0.930710  1
  H  H107  1  0.011450  0.014296  0.430710  1
  H  H108  1  0.988550  0.985704  0.569290  1
  H  H109  1  0.849129  0.331647  0.936141  1
  H  H110  1  0.150871  0.668353  0.063859  1
  H  H111  1  0.150871  0.831647  0.563859  1
  H  H112  1  0.849129  0.168353  0.436141  1
  H  H113  1  0.547924  0.907233  0.811187  1
  H  H114  1  0.436297  0.939069  0.263581  1
  H  H115  1  0.452076  0.407233  0.688813  1
  H  H116  1  0.563703  0.439069  0.236419  1
  H  H117  1  0.544117  0.164488  0.911080  1
  H  H118  1  0.577219  0.669148  0.133709  1
  H  H119  1  0.455883  0.664488  0.588920  1
  H  H120  1  0.422781  0.169148  0.366291  1
  H  H121  1  0.347530  0.198475  0.712311  1
  H  H122  1  0.652470  0.801525  0.287689  1
  H  H123  1  0.652470  0.698475  0.787689  1
  H  H124  1  0.347530  0.301525  0.212311  1
  H  H125  1  0.650652  0.277522  0.814316  1
  H  H126  1  0.349348  0.722478  0.185684  1
  H  H127  1  0.349348  0.777522  0.685684  1
  H  H128  1  0.650652  0.222478  0.314316  1
 
# Source:                            DeRosa_etal:Macromolecules.30.4147(1997)                                        
# Class:                             common_polymer_crystal                                                          
# Label:                             clath-syndio-polystyrene                                                        
# Structure prediction method used:  NA                                                                              
# Number of atoms:                   128
# Number of atom types:                2
# Atom types:                         C  H
# Dielectric constant, electronic:   2.63870E+00
# Dielectric constant, ionic:        7.72300E-02
# Dielectric constant, total:        2.71593E+00
# Band gap at the GGA level (eV):    3.93900E+00
# Band gap at the HSE06 level (eV):  4.82550E+00
# Atomization energy (eV/atom):     -5.89814E+00
# Volume of the unit cell (A^3):     1.25830E+03
