# generated using pymatgen
data_H2C
_symmetry_space_group_name_H-M   'P 1'
_cell_length_a   6.19167220
_cell_length_b   6.52330143
_cell_length_c   18.92028852
_cell_angle_alpha   89.99994790
_cell_angle_beta   89.99695765
_cell_angle_gamma   82.37707979
_symmetry_Int_Tables_number   1
_chemical_formula_structural   H2C
_chemical_formula_sum   'H72 C36'
_cell_volume   757.439662167
_cell_formula_units_Z   36
loop_
 _symmetry_equiv_pos_site_id
 _symmetry_equiv_pos_as_xyz
  1  'x, y, z'
loop_
 _atom_site_type_symbol
 _atom_site_label
 _atom_site_symmetry_multiplicity
 _atom_site_fract_x
 _atom_site_fract_y
 _atom_site_fract_z
 _atom_site_occupancy
  C  C1  1  0.282781  0.803444  0.496083  1
  C  C2  1  0.717447  0.196809  0.503963  1
  C  C3  1  0.717287  0.696371  0.996083  1
  C  C4  1  0.282429  0.302990  0.003964  1
  C  C5  1  0.191717  0.750145  0.423643  1
  C  C6  1  0.808408  0.250124  0.576417  1
  C  C7  1  0.808273  0.749703  0.923632  1
  C  C8  1  0.191547  0.249640  0.076428  1
  C  C9  1  0.204730  0.512625  0.416720  1
  C  C10  1  0.795399  0.487643  0.583333  1
  C  C11  1  0.795248  0.987226  0.916716  1
  C  C12  1  0.204567  0.012117  0.083337  1
  C  C13  1  0.887475  0.537993  0.329772  1
  C  C14  1  0.112537  0.462338  0.670328  1
  C  C15  1  0.112464  0.961895  0.829742  1
  C  C16  1  0.887471  0.037384  0.170359  1
  C  C17  1  0.118988  0.433238  0.346558  1
  C  C18  1  0.881047  0.567072  0.653503  1
  C  C19  1  0.880954  0.066633  0.846548  1
  C  C20  1  0.118958  0.932668  0.153512  1
  C  C21  1  0.122622  0.195968  0.346941  1
  C  C22  1  0.877426  0.804336  0.653089  1
  C  C23  1  0.877313  0.303903  0.846937  1
  C  C24  1  0.122586  0.695402  0.153093  1
  C  C25  1  0.527821  0.115060  0.316480  1
  C  C26  1  0.472238  0.885202  0.683565  1
  C  C27  1  0.472122  0.384807  0.816485  1
  C  C28  1  0.527766  0.614543  0.183560  1
  C  C29  1  0.342706  0.067897  0.365557  1
  C  C30  1  0.657329  0.932399  0.634483  1
  C  C31  1  0.657226  0.431970  0.865560  1
  C  C32  1  0.342686  0.567345  0.134480  1
  C  C33  1  0.323202  0.834853  0.363281  1
  C  C34  1  0.676835  0.165441  0.636761  1
  C  C35  1  0.676730  0.665013  0.863286  1
  C  C36  1  0.323180  0.334303  0.136756  1
  H  H37  1  0.386848  0.606482  0.080698  1
  H  H38  1  0.254606  0.299641  0.188201  1
  H  H39  1  0.487740  0.247551  0.134907  1
  H  H40  1  0.019999  0.819158  0.420652  1
  H  H41  1  0.613083  0.392819  0.919343  1
  H  H42  1  0.980121  0.181107  0.579434  1
  H  H43  1  0.682299  0.524246  0.167922  1
  H  H44  1  0.494362  0.574766  0.238325  1
  H  H45  1  0.551056  0.777637  0.182370  1
  H  H46  1  0.071385  0.647313  0.205460  1
  H  H47  1  0.998605  0.656083  0.115890  1
  H  H48  1  0.226203  0.970479  0.196378  1
  H  H49  1  0.019836  0.318651  0.079472  1
  H  H50  1  0.226156  0.471100  0.303676  1
  H  H51  1  0.115200  0.452618  0.460719  1
  H  H52  1  0.376108  0.447664  0.423696  1
  H  H53  1  0.219121  0.713873  0.538278  1
  H  H54  1  0.243443  0.967617  0.509482  1
  H  H55  1  0.460635  0.765646  0.495994  1
  H  H56  1  0.998605  0.156592  0.384124  1
  H  H57  1  0.071477  0.147948  0.294559  1
  H  H58  1  0.487769  0.748108  0.365082  1
  H  H59  1  0.254521  0.800217  0.311852  1
  H  H60  1  0.386842  0.107045  0.419339  1
  H  H61  1  0.551038  0.278173  0.317629  1
  H  H62  1  0.494515  0.075126  0.261724  1
  H  H63  1  0.682360  0.024859  0.332156  1
  H  H64  1  0.624035  0.552613  0.576329  1
  H  H65  1  0.885000  0.547627  0.539347  1
  H  H66  1  0.773819  0.529254  0.696376  1
  H  H67  1  0.512273  0.252193  0.634936  1
  H  H68  1  0.745457  0.200088  0.688197  1
  H  H69  1  0.613173  0.893264  0.580701  1
  H  H70  1  0.539597  0.234644  0.504020  1
  H  H71  1  0.756770  0.032626  0.490576  1
  H  H72  1  0.781201  0.286343  0.461778  1
  H  H73  1  0.928623  0.852414  0.705456  1
  H  H74  1  0.001410  0.843661  0.615884  1
  H  H75  1  0.448966  0.722104  0.682383  1
  H  H76  1  0.505615  0.925011  0.738328  1
  H  H77  1  0.317706  0.975478  0.667922  1
  H  H78  1  0.979990  0.680697  0.920616  1
  H  H79  1  0.745365  0.699664  0.811849  1
  H  H80  1  0.512164  0.751758  0.865111  1
  H  H81  1  0.317584  0.475033  0.832155  1
  H  H82  1  0.505458  0.424708  0.761726  1
  H  H83  1  0.448883  0.221699  0.817642  1
  H  H84  1  0.773769  0.028776  0.803674  1
  H  H85  1  0.928461  0.351935  0.794555  1
  H  H86  1  0.001327  0.343273  0.884118  1
  H  H87  1  0.756642  0.532191  0.009470  1
  H  H88  1  0.780989  0.785923  0.038272  1
  H  H89  1  0.539434  0.734164  0.996021  1
  H  H90  1  0.176487  0.031987  0.783122  1
  H  H91  1  0.222990  0.979873  0.873997  1
  H  H92  1  0.118102  0.796179  0.819333  1
  H  H93  1  0.884798  0.047224  0.960709  1
  H  H94  1  0.623872  0.052180  0.923708  1
  H  H95  1  0.776965  0.520009  0.374035  1
  H  H96  1  0.881846  0.703712  0.319369  1
  H  H97  1  0.823427  0.467923  0.283154  1
  H  H98  1  0.823526  0.967253  0.216984  1
  H  H99  1  0.776882  0.019421  0.126119  1
  H  H100  1  0.881831  0.203097  0.180777  1
  H  H101  1  0.223108  0.480305  0.626080  1
  H  H102  1  0.176509  0.532447  0.716951  1
  H  H103  1  0.118168  0.296623  0.680741  1
  H  H104  1  0.243088  0.467179  0.990589  1
  H  H105  1  0.218632  0.213475  0.961784  1
  H  H106  1  0.460279  0.265159  0.003993  1
  H  H107  1  0.114942  0.952145  0.039357  1
  H  H108  1  0.375928  0.947152  0.076316  1
 
# Source:                            Hikosaka-Seto:PolymerJ.5.111(1973)                                              
# Class:                             common_polymer_crystal                                                          
# Label:                             isotactic_propylene                                                             
# Structure prediction method used:  NA                                                                              
# Number of atoms:                   108
# Number of atom types:                2
# Atom types:                         C  H
# Dielectric constant, electronic:   2.59178E+00
# Dielectric constant, ionic:        0.00000E+00
# Dielectric constant, total:        2.59178E+00
# Band gap at the GGA level (eV):    6.28420E+00
# Band gap at the HSE06 level (eV):  7.66750E+00
# Atomization energy (eV/atom):     -5.14330E+00
# Volume of the unit cell (A^3):     7.57440E+02
