# generated using pymatgen
data_H2C4S
_symmetry_space_group_name_H-M   'P 1'
_cell_length_a   7.28277514
_cell_length_b   5.64105622
_cell_length_c   7.83574398
_cell_angle_alpha   90.00000000
_cell_angle_beta   90.00000000
_cell_angle_gamma   90.00000000
_symmetry_Int_Tables_number   1
_chemical_formula_structural   H2C4S
_chemical_formula_sum   'H8 C16 S4'
_cell_volume   321.912296977
_cell_formula_units_Z   4
loop_
 _symmetry_equiv_pos_site_id
 _symmetry_equiv_pos_as_xyz
  1  'x, y, z'
loop_
 _atom_site_type_symbol
 _atom_site_label
 _atom_site_symmetry_multiplicity
 _atom_site_fract_x
 _atom_site_fract_y
 _atom_site_fract_z
 _atom_site_occupancy
  S  S1  1  0.444097  0.830582  0.248497  1
  S  S2  1  0.555903  0.169418  0.748497  1
  S  S3  1  0.944097  0.669418  0.248497  1
  S  S4  1  0.055903  0.330582  0.748497  1
  C  C5  1  0.512160  0.029323  0.409899  1
  C  C6  1  0.487840  0.970677  0.909899  1
  C  C7  1  0.012160  0.470677  0.409899  1
  C  C8  1  0.987840  0.529323  0.909899  1
  C  C9  1  0.583263  0.234902  0.338733  1
  C  C10  1  0.416737  0.765098  0.838733  1
  C  C11  1  0.083263  0.265098  0.338733  1
  C  C12  1  0.916737  0.734902  0.838733  1
  C  C13  1  0.583263  0.234902  0.158268  1
  C  C14  1  0.416737  0.765098  0.658268  1
  C  C15  1  0.083263  0.265098  0.158268  1
  C  C16  1  0.916737  0.734902  0.658268  1
  C  C17  1  0.512159  0.029322  0.087100  1
  C  C18  1  0.487841  0.970678  0.587100  1
  C  C19  1  0.012159  0.470678  0.087100  1
  C  C20  1  0.987841  0.529322  0.587100  1
  H  H21  1  0.632654  0.381658  0.081866  1
  H  H22  1  0.367346  0.618342  0.581866  1
  H  H23  1  0.132654  0.118342  0.081866  1
  H  H24  1  0.867346  0.881658  0.581866  1
  H  H25  1  0.632658  0.381653  0.415137  1
  H  H26  1  0.367342  0.618347  0.915137  1
  H  H27  1  0.132658  0.118347  0.415137  1
  H  H28  1  0.867342  0.881653  0.915137  1
 
# Source:                            Kobayashi_etal:Synth.Met.9.77(1984)                                             
# Class:                             common_polymer_crystal                                                          
# Label:                             p-25-dihydrothiophene-25-diyl                                                   
# Structure prediction method used:  NA                                                                              
# Number of atoms:                    28
# Number of atom types:                3
# Atom types:                         S  C  H
# Dielectric constant, electronic:   7.04381E+00
# Dielectric constant, ionic:        1.46905E-01
# Dielectric constant, total:        7.19072E+00
# Band gap at the GGA level (eV):    5.66600E-01
# Band gap at the HSE06 level (eV):  9.89400E-01
# Atomization energy (eV/atom):     -6.17903E+00
# Volume of the unit cell (A^3):     3.21912E+02
