# generated using pymatgen
data_H5C3O
_symmetry_space_group_name_H-M   'P 1'
_cell_length_a   4.46789420
_cell_length_b   6.72868161
_cell_length_c   17.24704069
_cell_angle_alpha   90.00557314
_cell_angle_beta   90.00194702
_cell_angle_gamma   90.00442644
_symmetry_Int_Tables_number   1
_chemical_formula_structural   H5C3O
_chemical_formula_sum   'H40 C24 O8'
_cell_volume   518.498427258
_cell_formula_units_Z   8
loop_
 _symmetry_equiv_pos_site_id
 _symmetry_equiv_pos_as_xyz
  1  'x, y, z'
loop_
 _atom_site_type_symbol
 _atom_site_label
 _atom_site_symmetry_multiplicity
 _atom_site_fract_x
 _atom_site_fract_y
 _atom_site_fract_z
 _atom_site_occupancy
  C  C1  1  0.273979  0.091553  0.053679  1
  C  C2  1  0.126128  0.008936  0.553677  1
  C  C3  1  0.773882  0.508612  0.845976  1
  C  C4  1  0.626330  0.591826  0.345978  1
  C  C5  1  0.339400  0.047760  0.917596  1
  C  C6  1  0.060779  0.052702  0.417591  1
  C  C7  1  0.839411  0.552382  0.982064  1
  C  C8  1  0.560767  0.548053  0.482059  1
  C  C9  1  0.171047  0.965223  0.848490  1
  C  C10  1  0.229203  0.135181  0.348496  1
  C  C11  1  0.671062  0.634932  0.051158  1
  C  C12  1  0.729101  0.465506  0.551153  1
  C  C13  1  0.310404  0.045786  0.773343  1
  C  C14  1  0.089813  0.054657  0.273340  1
  C  C15  1  0.810409  0.554495  0.126322  1
  C  C16  1  0.589796  0.545985  0.626319  1
  C  C17  1  0.155757  0.970777  0.699671  1
  C  C18  1  0.244420  0.129682  0.199677  1
  C  C19  1  0.655871  0.629686  0.199973  1
  C  C20  1  0.744323  0.470771  0.699965  1
  C  C21  1  0.114629  0.031199  0.126963  1
  C  C22  1  0.285513  0.069276  0.626966  1
  C  C23  1  0.614519  0.569077  0.772706  1
  C  C24  1  0.785679  0.531359  0.272705  1
  H  H25  1  0.549125  0.009229  0.771560  1
  H  H26  1  0.295917  0.207440  0.774836  1
  H  H27  1  0.175429  0.802585  0.849785  1
  H  H28  1  0.937878  0.013495  0.851760  1
  H  H29  1  0.560391  0.980885  0.924443  1
  H  H30  1  0.359895  0.208755  0.914164  1
  H  H31  1  0.133476  0.869813  0.131727  1
  H  H32  1  0.876498  0.064195  0.119896  1
  H  H33  1  0.483443  0.095664  0.203049  1
  H  H34  1  0.227559  0.291290  0.194853  1
  H  H35  1  0.104286  0.892999  0.274812  1
  H  H36  1  0.851096  0.091225  0.271566  1
  H  H37  1  0.224921  0.297821  0.349801  1
  H  H38  1  0.462335  0.086836  0.351772  1
  H  H39  1  0.040236  0.891706  0.414156  1
  H  H40  1  0.839803  0.119612  0.424424  1
  H  H41  1  0.916742  0.004799  0.703052  1
  H  H42  1  0.172610  0.809169  0.694832  1
  H  H43  1  0.266645  0.230661  0.631752  1
  H  H44  1  0.523641  0.036290  0.619893  1
  H  H45  1  0.437901  0.586604  0.047888  1
  H  H46  1  0.416834  0.595667  0.196619  1
  H  H47  1  0.339756  0.481178  0.475203  1
  H  H48  1  0.351032  0.509503  0.628079  1
  H  H49  1  0.633326  0.730474  0.767989  1
  H  H50  1  0.376394  0.536015  0.779760  1
  H  H51  1  0.604448  0.707642  0.624887  1
  H  H52  1  0.540311  0.709053  0.485500  1
  H  H53  1  0.672779  0.791305  0.204755  1
  H  H54  1  0.675406  0.797574  0.049838  1
  H  H55  1  0.795821  0.392838  0.124880  1
  H  H56  1  0.766855  0.369963  0.267973  1
  H  H57  1  0.724706  0.302865  0.549829  1
  H  H58  1  0.727416  0.309151  0.704723  1
  H  H59  1  0.859835  0.391383  0.985491  1
  H  H60  1  0.060435  0.619243  0.975224  1
  H  H61  1  0.983359  0.504791  0.696622  1
  H  H62  1  0.962281  0.513792  0.547885  1
  H  H63  1  0.023809  0.564407  0.279761  1
  H  H64  1  0.049158  0.591020  0.128087  1
  O  O65  1  0.485716  0.207951  0.051779  1
  O  O66  1  0.914345  0.892566  0.551769  1
  O  O67  1  0.985484  0.392136  0.847860  1
  O  O68  1  0.414705  0.708296  0.347865  1
  O  O69  1  0.166519  0.000212  0.989186  1
  O  O70  1  0.233635  0.100260  0.489197  1
  O  O71  1  0.666550  0.599971  0.910471  1
  O  O72  1  0.733668  0.500480  0.410470  1
 
# Source:                            Dorset:Polymer.38.247(1997)                                                     
# Class:                             common_polymer_crystal                                                          
# Label:                             p-caprolactone                                                                  
# Structure prediction method used:  NA                                                                              
# Number of atoms:                    72
# Number of atom types:                3
# Atom types:                         C  H  O
# Dielectric constant, electronic:   2.69996E+00
# Dielectric constant, ionic:        4.45719E-01
# Dielectric constant, total:        3.14568E+00
# Band gap at the GGA level (eV):    5.06470E+00
# Band gap at the HSE06 level (eV):  7.05580E+00
# Atomization energy (eV/atom):     -5.44163E+00
# Volume of the unit cell (A^3):     5.18498E+02
