# generated using pymatgen
data_H4C5OF6
_symmetry_space_group_name_H-M   'P 1'
_cell_length_a   6.85300064
_cell_length_b   7.62615180
_cell_length_c   9.39700240
_cell_angle_alpha   90.00000000
_cell_angle_beta   90.00000000
_cell_angle_gamma   90.00000000
_symmetry_Int_Tables_number   1
_chemical_formula_structural   H4C5OF6
_chemical_formula_sum   'H16 C20 O4 F24'
_cell_volume   491.106357475
_cell_formula_units_Z   4
loop_
 _symmetry_equiv_pos_site_id
 _symmetry_equiv_pos_as_xyz
  1  'x, y, z'
loop_
 _atom_site_type_symbol
 _atom_site_label
 _atom_site_symmetry_multiplicity
 _atom_site_fract_x
 _atom_site_fract_y
 _atom_site_fract_z
 _atom_site_occupancy
  F  F1  1  0.558911  0.257765  0.370930  1
  F  F2  1  0.441089  0.757765  0.129070  1
  F  F3  1  0.058911  0.242235  0.629070  1
  F  F4  1  0.941089  0.742235  0.870930  1
  F  F5  1  0.210354  0.256452  0.030568  1
  F  F6  1  0.789646  0.756452  0.469432  1
  F  F7  1  0.710354  0.243548  0.969432  1
  F  F8  1  0.289646  0.743548  0.530568  1
  F  F9  1  0.328558  0.107633  0.480359  1
  F  F10  1  0.671442  0.607633  0.019641  1
  F  F11  1  0.828558  0.392367  0.519641  1
  F  F12  1  0.171442  0.892367  0.980359  1
  F  F13  1  0.345115  0.393715  0.506338  1
  F  F14  1  0.654885  0.893715  0.993662  1
  F  F15  1  0.845115  0.106285  0.493662  1
  F  F16  1  0.154885  0.606285  0.006338  1
  F  F17  1  0.468274  0.388092  0.122101  1
  F  F18  1  0.531726  0.888092  0.377899  1
  F  F19  1  0.968274  0.111908  0.877899  1
  F  F20  1  0.031726  0.611908  0.622101  1
  F  F21  1  0.432177  0.100792  0.142636  1
  F  F22  1  0.567823  0.600792  0.357364  1
  F  F23  1  0.932177  0.399208  0.857364  1
  F  F24  1  0.067823  0.899208  0.642636  1
  C  C25  1  0.365733  0.261589  0.410944  1
  C  C26  1  0.634267  0.761589  0.089056  1
  C  C27  1  0.865733  0.238411  0.589056  1
  C  C28  1  0.134267  0.738411  0.910944  1
  C  C29  1  0.223771  0.290862  0.284246  1
  C  C30  1  0.776229  0.790862  0.215754  1
  C  C31  1  0.723771  0.209138  0.715754  1
  C  C32  1  0.276229  0.709138  0.784246  1
  C  C33  1  0.334212  0.258642  0.144670  1
  C  C34  1  0.665788  0.758642  0.355330  1
  C  C35  1  0.834212  0.241358  0.855330  1
  C  C36  1  0.165788  0.741358  0.644670  1
  C  C37  1  0.055099  0.995713  0.282276  1
  C  C38  1  0.944901  0.495713  0.217724  1
  C  C39  1  0.555099  0.504287  0.717724  1
  C  C40  1  0.444901  0.004287  0.782276  1
  C  C41  1  0.857780  0.977476  0.209911  1
  C  C42  1  0.142220  0.477476  0.290089  1
  C  C43  1  0.357780  0.522524  0.790089  1
  C  C44  1  0.642220  0.022524  0.709911  1
  O  O45  1  0.057702  0.186797  0.296323  1
  O  O46  1  0.942298  0.686797  0.203677  1
  O  O47  1  0.557702  0.313203  0.703677  1
  O  O48  1  0.442298  0.813203  0.796323  1
  H  H49  1  0.173739  0.948985  0.216484  1
  H  H50  1  0.826261  0.448985  0.283516  1
  H  H51  1  0.673739  0.551015  0.783516  1
  H  H52  1  0.326261  0.051015  0.716484  1
  H  H53  1  0.065249  0.935566  0.386275  1
  H  H54  1  0.934751  0.435566  0.113725  1
  H  H55  1  0.565249  0.564434  0.613725  1
  H  H56  1  0.434751  0.064434  0.886275  1
  H  H57  1  0.879615  0.014244  0.100224  1
  H  H58  1  0.120385  0.514244  0.399776  1
  H  H59  1  0.379615  0.485756  0.899776  1
  H  H60  1  0.620385  0.985756  0.600224  1
  H  H61  1  0.754844  0.069880  0.255018  1
  H  H62  1  0.245156  0.569880  0.244982  1
  H  H63  1  0.254844  0.430120  0.744982  1
  H  H64  1  0.745156  0.930120  0.755018  1
 
# Source:                            Matsubayashi_etal:Polym.J.9.145(1977)                                           
# Class:                             common_polymer_crystal                                                          
# Label:                             p-ethene-alt-hexafluoroacetone                                                  
# Structure prediction method used:  NA                                                                              
# Number of atoms:                    64
# Number of atom types:                4
# Atom types:                         F  C  O  H
# Dielectric constant, electronic:   2.47231E+00
# Dielectric constant, ionic:        6.17004E-01
# Dielectric constant, total:        3.08931E+00
# Band gap at the GGA level (eV):    6.32910E+00
# Band gap at the HSE06 level (eV):  8.38780E+00
# Atomization energy (eV/atom):     -5.18069E+00
# Volume of the unit cell (A^3):     4.91106E+02
