# generated using pymatgen
data_H2C
_symmetry_space_group_name_H-M   'P 1'
_cell_length_a   2.56458678
_cell_length_b   4.63049555
_cell_length_c   6.70500758
_cell_angle_alpha   89.99934952
_cell_angle_beta   89.99992933
_cell_angle_gamma   90.00013901
_symmetry_Int_Tables_number   1
_chemical_formula_structural   H2C
_chemical_formula_sum   'H8 C4'
_cell_volume   79.6240279743
_cell_formula_units_Z   4
loop_
 _symmetry_equiv_pos_site_id
 _symmetry_equiv_pos_as_xyz
  1  'x, y, z'
loop_
 _atom_site_type_symbol
 _atom_site_label
 _atom_site_symmetry_multiplicity
 _atom_site_fract_x
 _atom_site_fract_y
 _atom_site_fract_z
 _atom_site_occupancy
  C  C1  1  0.250000  0.936596  0.954795  1
  C  C2  1  0.750000  0.063408  0.045208  1
  C  C3  1  0.749999  0.436593  0.545207  1
  C  C4  1  0.249999  0.563403  0.454791  1
  H  H5  1  0.249999  0.972808  0.793074  1
  H  H6  1  0.749998  0.027195  0.206928  1
  H  H7  1  0.749996  0.472805  0.706926  1
  H  H8  1  0.249998  0.527193  0.293072  1
  H  H9  1  0.250002  0.701314  0.975841  1
  H  H10  1  0.750004  0.298689  0.024162  1
  H  H11  1  0.750001  0.201310  0.524164  1
  H  H12  1  0.250003  0.798687  0.475833  1
 
# Source:                            Peacock:HandbookofPolyethylene.CRCPress.1ed.(2000)                              
# Class:                             common_polymer_crystal                                                          
# Label:                             p-ethylene                                                                      
# Structure prediction method used:  NA                                                                              
# Number of atoms:                    12
# Number of atom types:                2
# Atom types:                         C  H
# Dielectric constant, electronic:   2.71544E+00
# Dielectric constant, ionic:        2.41670E-02
# Dielectric constant, total:        2.73961E+00
# Band gap at the GGA level (eV):    6.68270E+00
# Band gap at the HSE06 level (eV):  8.13610E+00
# Atomization energy (eV/atom):     -5.15307E+00
# Volume of the unit cell (A^3):     7.96240E+01
