# generated using pymatgen
data_H8C5O2
_symmetry_space_group_name_H-M   'P 1'
_cell_length_a   12.76895482
_cell_length_b   6.49329402
_cell_length_c   5.17872261
_cell_angle_alpha   90.00000000
_cell_angle_beta   96.07852733
_cell_angle_gamma   90.00000000
_symmetry_Int_Tables_number   1
_chemical_formula_structural   H8C5O2
_chemical_formula_sum   'H32 C20 O8'
_cell_volume   426.967131962
_cell_formula_units_Z   4
loop_
 _symmetry_equiv_pos_site_id
 _symmetry_equiv_pos_as_xyz
  1  'x, y, z'
loop_
 _atom_site_type_symbol
 _atom_site_label
 _atom_site_symmetry_multiplicity
 _atom_site_fract_x
 _atom_site_fract_y
 _atom_site_fract_z
 _atom_site_occupancy
  C  C1  1  0.992261  0.925110  0.109194  1
  C  C2  1  0.007739  0.074890  0.890806  1
  C  C3  1  0.007739  0.425110  0.390806  1
  C  C4  1  0.992261  0.574890  0.609194  1
  C  C5  1  0.808253  0.976079  0.165716  1
  C  C6  1  0.191747  0.023921  0.834284  1
  C  C7  1  0.191747  0.476079  0.334284  1
  C  C8  1  0.808253  0.523921  0.665716  1
  C  C9  1  0.734313  0.055970  0.349818  1
  C  C10  1  0.265687  0.944030  0.650182  1
  C  C11  1  0.265687  0.555970  0.150182  1
  C  C12  1  0.734313  0.444030  0.849818  1
  C  C13  1  0.623729  0.961811  0.310645  1
  C  C14  1  0.376271  0.038189  0.689355  1
  C  C15  1  0.376271  0.461811  0.189355  1
  C  C16  1  0.623729  0.538189  0.810645  1
  C  C17  1  0.554759  0.048742  0.509554  1
  C  C18  1  0.445241  0.951258  0.490446  1
  C  C19  1  0.445241  0.548742  0.990446  1
  C  C20  1  0.554759  0.451258  0.009554  1
  H  H21  1  0.062578  0.913468  0.246080  1
  H  H22  1  0.937422  0.086532  0.753920  1
  H  H23  1  0.937422  0.413468  0.253920  1
  H  H24  1  0.062578  0.586532  0.746080  1
  H  H25  1  0.967823  0.774352  0.035164  1
  H  H26  1  0.032177  0.225648  0.964836  1
  H  H27  1  0.032177  0.274352  0.464836  1
  H  H28  1  0.967823  0.725648  0.535164  1
  H  H29  1  0.769822  0.027107  0.547505  1
  H  H30  1  0.230178  0.972893  0.452495  1
  H  H31  1  0.230178  0.527107  0.952495  1
  H  H32  1  0.769822  0.472893  0.047505  1
  H  H33  1  0.730073  0.223633  0.323830  1
  H  H34  1  0.269927  0.776367  0.676170  1
  H  H35  1  0.269927  0.723633  0.176170  1
  H  H36  1  0.730073  0.276367  0.823830  1
  H  H37  1  0.630454  0.795053  0.332233  1
  H  H38  1  0.369546  0.204947  0.667767  1
  H  H39  1  0.369546  0.295053  0.167767  1
  H  H40  1  0.630454  0.704947  0.832233  1
  H  H41  1  0.587411  0.991943  0.113309  1
  H  H42  1  0.412589  0.008057  0.886691  1
  H  H43  1  0.412589  0.491943  0.386691  1
  H  H44  1  0.587411  0.508057  0.613309  1
  H  H45  1  0.594948  0.023781  0.704847  1
  H  H46  1  0.405052  0.976219  0.295153  1
  H  H47  1  0.405052  0.523781  0.795153  1
  H  H48  1  0.594948  0.476219  0.204847  1
  H  H49  1  0.546700  0.215563  0.483839  1
  H  H50  1  0.453300  0.784437  0.516161  1
  H  H51  1  0.453300  0.715563  0.016161  1
  H  H52  1  0.546700  0.284437  0.983839  1
  O  O53  1  0.911053  0.003925  0.266190  1
  O  O54  1  0.088947  0.996075  0.733810  1
  O  O55  1  0.088947  0.503925  0.233810  1
  O  O56  1  0.911053  0.496075  0.766190  1
  O  O57  1  0.783681  0.901303  0.950348  1
  O  O58  1  0.216319  0.098697  0.049652  1
  O  O59  1  0.216319  0.401303  0.549652  1
  O  O60  1  0.783681  0.598697  0.450348  1
 
# Source:                            TunerJones-Bunn:Acta.Cryst.15.105(1962)                                         
# Class:                             common_polymer_crystal                                                          
# Label:                             p-ethylene-suberate                                                             
# Structure prediction method used:  NA                                                                              
# Number of atoms:                    60
# Number of atom types:                3
# Atom types:                         C  H  O
# Dielectric constant, electronic:   2.74806E+00
# Dielectric constant, ionic:        8.22142E-01
# Dielectric constant, total:        3.57021E+00
# Band gap at the GGA level (eV):    4.89280E+00
# Band gap at the HSE06 level (eV):  6.83830E+00
# Atomization energy (eV/atom):     -5.50104E+00
# Volume of the unit cell (A^3):     4.26967E+02
