# generated using pymatgen
data_HCO
_symmetry_space_group_name_H-M   'P 1'
_cell_length_a   7.06418100
_cell_length_b   5.49423500
_cell_length_c   4.91039900
_cell_angle_alpha   90.00000000
_cell_angle_beta   90.00000000
_cell_angle_gamma   90.00000000
_symmetry_Int_Tables_number   1
_chemical_formula_structural   HCO
_chemical_formula_sum   'H8 C8 O8'
_cell_volume   190.583734234
_cell_formula_units_Z   8
loop_
 _symmetry_equiv_pos_site_id
 _symmetry_equiv_pos_as_xyz
  1  'x, y, z'
loop_
 _atom_site_type_symbol
 _atom_site_label
 _atom_site_symmetry_multiplicity
 _atom_site_fract_x
 _atom_site_fract_y
 _atom_site_fract_z
 _atom_site_occupancy
  C  C1  1  0.808854  0.750000  0.354159  1
  C  C2  1  0.472684  0.750000  0.341116  1
  C  C3  1  0.691146  0.250000  0.854159  1
  C  C4  1  0.027316  0.250000  0.841116  1
  C  C5  1  0.191146  0.250000  0.645841  1
  C  C6  1  0.527316  0.250000  0.658884  1
  C  C7  1  0.308854  0.750000  0.145841  1
  C  C8  1  0.972684  0.750000  0.158884  1
  H  H9  1  0.814800  0.911401  0.481500  1
  H  H10  1  0.685200  0.088599  0.981500  1
  H  H11  1  0.185200  0.411401  0.518500  1
  H  H12  1  0.314800  0.588599  0.018500  1
  H  H13  1  0.185200  0.088599  0.518500  1
  H  H14  1  0.314800  0.911401  0.018500  1
  H  H15  1  0.814800  0.588599  0.481500  1
  H  H16  1  0.685200  0.411401  0.981500  1
  O  O17  1  0.635530  0.750000  0.193734  1
  O  O18  1  0.465434  0.750000  0.589582  1
  O  O19  1  0.864470  0.250000  0.693734  1
  O  O20  1  0.034566  0.250000  0.089582  1
  O  O21  1  0.364470  0.250000  0.806266  1
  O  O22  1  0.534566  0.250000  0.410418  1
  O  O23  1  0.135530  0.750000  0.306266  1
  O  O24  1  0.965434  0.750000  0.910418  1
 
# Source:                            Zhu_etal:J.Chem.Phys.141.154102(2014)                                           
# Class:                             common_polymer_crystal                                                          
# Label:                             p-glutamic-acid                                                                 
# Structure prediction method used:  NA                                                                              
# Number of atoms:                    24
# Number of atom types:                3
# Atom types:                         C  H  O
# Dielectric constant, electronic:   2.78917E+00
# Dielectric constant, ionic:        9.07442E-01
# Dielectric constant, total:        3.69661E+00
# Band gap at the GGA level (eV):    4.55810E+00
# Band gap at the HSE06 level (eV):  6.57120E+00
# Atomization energy (eV/atom):     -5.99887E+00
# Volume of the unit cell (A^3):     1.90584E+02
