# generated using pymatgen
data_H4C6O
_symmetry_space_group_name_H-M   'P 1'
_cell_length_a   7.15606900
_cell_length_b   5.33361600
_cell_length_c   9.98483400
_cell_angle_alpha   90.00000000
_cell_angle_beta   90.00000000
_cell_angle_gamma   90.00000000
_symmetry_Int_Tables_number   1
_chemical_formula_structural   H4C6O
_chemical_formula_sum   'H16 C24 O4'
_cell_volume   381.098389451
_cell_formula_units_Z   4
loop_
 _symmetry_equiv_pos_site_id
 _symmetry_equiv_pos_as_xyz
  1  'x, y, z'
loop_
 _atom_site_type_symbol
 _atom_site_label
 _atom_site_symmetry_multiplicity
 _atom_site_fract_x
 _atom_site_fract_y
 _atom_site_fract_z
 _atom_site_occupancy
  C  C1  1  0.003643  0.898017  0.872288  1
  C  C2  1  0.084477  0.871393  0.107313  1
  C  C3  1  0.088075  0.770940  0.978289  1
  C  C4  1  0.496357  0.601983  0.372288  1
  C  C5  1  0.415523  0.628607  0.607313  1
  C  C6  1  0.411925  0.729060  0.478289  1
  C  C7  1  0.996357  0.898017  0.627712  1
  C  C8  1  0.915523  0.871393  0.392687  1
  C  C9  1  0.911925  0.770940  0.521711  1
  C  C10  1  0.503643  0.601983  0.127712  1
  C  C11  1  0.584477  0.628607  0.892687  1
  C  C12  1  0.588075  0.729060  0.021711  1
  C  C13  1  0.996357  0.101983  0.127712  1
  C  C14  1  0.915523  0.128607  0.892687  1
  C  C15  1  0.911925  0.229060  0.021711  1
  C  C16  1  0.503643  0.398017  0.627712  1
  C  C17  1  0.584477  0.371393  0.392687  1
  C  C18  1  0.588075  0.270940  0.521711  1
  C  C19  1  0.003643  0.101983  0.372288  1
  C  C20  1  0.084477  0.128607  0.607313  1
  C  C21  1  0.088075  0.229060  0.478289  1
  C  C22  1  0.496357  0.398017  0.872288  1
  C  C23  1  0.415523  0.371393  0.107313  1
  C  C24  1  0.411925  0.270940  0.978289  1
  H  H25  1  0.844664  0.406571  0.041138  1
  H  H26  1  0.848237  0.226643  0.810974  1
  H  H27  1  0.655336  0.093429  0.541138  1
  H  H28  1  0.651763  0.273357  0.310974  1
  H  H29  1  0.155336  0.406571  0.458862  1
  H  H30  1  0.151763  0.226643  0.689026  1
  H  H31  1  0.344664  0.093429  0.958862  1
  H  H32  1  0.348237  0.273357  0.189026  1
  H  H33  1  0.155336  0.593429  0.958862  1
  H  H34  1  0.151763  0.773357  0.189026  1
  H  H35  1  0.344664  0.906571  0.458862  1
  H  H36  1  0.348237  0.726643  0.689026  1
  H  H37  1  0.844664  0.593429  0.541138  1
  H  H38  1  0.848237  0.773357  0.310974  1
  H  H39  1  0.655336  0.906571  0.041138  1
  H  H40  1  0.651763  0.726643  0.810974  1
  O  O41  1  0.000000  0.767640  0.750000  1
  O  O42  1  0.500000  0.732360  0.250000  1
  O  O43  1  0.000000  0.232360  0.250000  1
  O  O44  1  0.500000  0.267640  0.750000  1
 
# Source:                            Zhu_etal:J.Chem.Phys.141.154102(2014)                                           
# Class:                             common_polymer_crystal                                                          
# Label:                             p-phenylene-oxide                                                               
# Structure prediction method used:  NA                                                                              
# Number of atoms:                    44
# Number of atom types:                3
# Atom types:                         C  H  O
# Dielectric constant, electronic:   3.44400E+00
# Dielectric constant, ionic:        4.79065E-01
# Dielectric constant, total:        3.92307E+00
# Band gap at the GGA level (eV):    2.61050E+00
# Band gap at the HSE06 level (eV):  3.64550E+00
# Atomization energy (eV/atom):     -6.30671E+00
# Volume of the unit cell (A^3):     3.81098E+02
