# generated using pymatgen
data_H10C5S
_symmetry_space_group_name_H-M   'P 1'
_cell_length_a   7.70817061
_cell_length_b   8.72423900
_cell_length_c   7.99373203
_cell_angle_alpha   90.00000000
_cell_angle_beta   109.07917531
_cell_angle_gamma   90.00000000
_symmetry_Int_Tables_number   1
_chemical_formula_structural   H10C5S
_chemical_formula_sum   'H40 C20 S4'
_cell_volume   508.032406277
_cell_formula_units_Z   4
loop_
 _symmetry_equiv_pos_site_id
 _symmetry_equiv_pos_as_xyz
  1  'x, y, z'
loop_
 _atom_site_type_symbol
 _atom_site_label
 _atom_site_symmetry_multiplicity
 _atom_site_fract_x
 _atom_site_fract_y
 _atom_site_fract_z
 _atom_site_occupancy
  C  C1  1  0.252185  0.055804  0.431685  1
  C  C2  1  0.747815  0.944196  0.568315  1
  C  C3  1  0.747815  0.555804  0.068315  1
  C  C4  1  0.252185  0.444196  0.931685  1
  C  C5  1  0.250666  0.961535  0.593157  1
  C  C6  1  0.749334  0.038465  0.406843  1
  C  C7  1  0.749334  0.461535  0.906843  1
  C  C8  1  0.250666  0.538465  0.093157  1
  C  C9  1  0.250790  0.060944  0.752355  1
  C  C10  1  0.749210  0.939056  0.247645  1
  C  C11  1  0.749210  0.560944  0.747645  1
  C  C12  1  0.250790  0.439056  0.252355  1
  C  C13  1  0.249495  0.055858  0.073070  1
  C  C14  1  0.750505  0.944142  0.926930  1
  C  C15  1  0.750505  0.555858  0.426930  1
  C  C16  1  0.249495  0.444142  0.573070  1
  C  C17  1  0.248872  0.961548  0.910932  1
  C  C18  1  0.751128  0.038452  0.089068  1
  C  C19  1  0.751128  0.461548  0.589068  1
  C  C20  1  0.248872  0.538452  0.410932  1
  S  S21  1  0.249260  0.922741  0.251852  1
  S  S22  1  0.750740  0.077259  0.748148  1
  S  S23  1  0.750740  0.422741  0.248148  1
  S  S24  1  0.249260  0.577259  0.751852  1
  H  H25  1  0.375830  0.126851  0.464324  1
  H  H26  1  0.624170  0.873149  0.535676  1
  H  H27  1  0.624170  0.626851  0.035676  1
  H  H28  1  0.375830  0.373149  0.964324  1
  H  H29  1  0.132039  0.130927  0.386378  1
  H  H30  1  0.867961  0.869073  0.613622  1
  H  H31  1  0.867961  0.630927  0.113622  1
  H  H32  1  0.132039  0.369073  0.886378  1
  H  H33  1  0.370733  0.885677  0.632868  1
  H  H34  1  0.629267  0.114323  0.367132  1
  H  H35  1  0.629267  0.385677  0.867132  1
  H  H36  1  0.370733  0.614323  0.132868  1
  H  H37  1  0.130147  0.886159  0.556131  1
  H  H38  1  0.869853  0.113841  0.443869  1
  H  H39  1  0.869853  0.386159  0.943869  1
  H  H40  1  0.130147  0.613841  0.056131  1
  H  H41  1  0.372846  0.134722  0.790296  1
  H  H42  1  0.627154  0.865278  0.209704  1
  H  H43  1  0.627154  0.634722  0.709704  1
  H  H44  1  0.372846  0.365278  0.290296  1
  H  H45  1  0.130116  0.136247  0.714835  1
  H  H46  1  0.869884  0.863753  0.285165  1
  H  H47  1  0.869884  0.636247  0.785165  1
  H  H48  1  0.130116  0.363753  0.214835  1
  H  H49  1  0.127506  0.128877  0.041033  1
  H  H50  1  0.872494  0.871123  0.958967  1
  H  H51  1  0.872494  0.628877  0.458967  1
  H  H52  1  0.127506  0.371123  0.541033  1
  H  H53  1  0.371318  0.129082  0.118962  1
  H  H54  1  0.628682  0.870918  0.881038  1
  H  H55  1  0.628682  0.629082  0.381038  1
  H  H56  1  0.371318  0.370918  0.618962  1
  H  H57  1  0.367706  0.884324  0.947399  1
  H  H58  1  0.632294  0.115676  0.052601  1
  H  H59  1  0.632294  0.384324  0.552601  1
  H  H60  1  0.367706  0.615676  0.447399  1
  H  H61  1  0.127051  0.887656  0.870691  1
  H  H62  1  0.872949  0.112344  0.129309  1
  H  H63  1  0.872949  0.387656  0.629309  1
  H  H64  1  0.127051  0.612344  0.370691  1
 
# Source:                            Sakakihara_etal:Macromolecules.2.515(1969)                                      
# Class:                             common_polymer_crystal                                                          
# Label:                             p-propylene-sulfide                                                             
# Structure prediction method used:  NA                                                                              
# Number of atoms:                    64
# Number of atom types:                3
# Atom types:                         C  S  H
# Dielectric constant, electronic:   2.90347E+00
# Dielectric constant, ionic:        1.03725E-01
# Dielectric constant, total:        3.00719E+00
# Band gap at the GGA level (eV):    3.65550E+00
# Band gap at the HSE06 level (eV):  4.98900E+00
# Atomization energy (eV/atom):     -5.03346E+00
# Volume of the unit cell (A^3):     5.08032E+02
