# generated using pymatgen
data_H3C3O
_symmetry_space_group_name_H-M   'P 1'
_cell_length_a   4.31167149
_cell_length_b   5.60721406
_cell_length_c   9.96501987
_cell_angle_alpha   94.08474080
_cell_angle_beta   99.43318922
_cell_angle_gamma   110.02362539
_symmetry_Int_Tables_number   1
_chemical_formula_structural   H3C3O
_chemical_formula_sum   'H12 C12 O4'
_cell_volume   221.17694382
_cell_formula_units_Z   4
loop_
 _symmetry_equiv_pos_site_id
 _symmetry_equiv_pos_as_xyz
  1  'x, y, z'
loop_
 _atom_site_type_symbol
 _atom_site_label
 _atom_site_symmetry_multiplicity
 _atom_site_fract_x
 _atom_site_fract_y
 _atom_site_fract_z
 _atom_site_occupancy
  C  C1  1  0.013120  0.222428  0.942170  1
  C  C2  1  0.986880  0.777572  0.057830  1
  C  C3  1  0.746800  0.990692  0.890712  1
  C  C4  1  0.253200  0.009308  0.109288  1
  C  C5  1  0.736734  0.767423  0.947725  1
  C  C6  1  0.263266  0.232577  0.052275  1
  C  C7  1  0.478642  0.992548  0.776814  1
  C  C8  1  0.521358  0.007452  0.223186  1
  C  C9  1  0.937106  0.744758  0.630152  1
  C  C10  1  0.062894  0.255242  0.369848  1
  C  C11  1  0.007349  0.638407  0.499023  1
  C  C12  1  0.992651  0.361593  0.500977  1
  H  H13  1  0.538239  0.588032  0.903242  1
  H  H14  1  0.461761  0.411968  0.096758  1
  H  H15  1  0.017747  0.391041  0.894886  1
  H  H16  1  0.982253  0.608959  0.105114  1
  H  H17  1  0.713972  0.613057  0.658587  1
  H  H18  1  0.286028  0.386943  0.341413  1
  H  H19  1  0.920527  0.933279  0.625270  1
  H  H20  1  0.079473  0.066721  0.374730  1
  H  H21  1  0.822638  0.649761  0.412899  1
  H  H22  1  0.177362  0.350239  0.587101  1
  H  H23  1  0.254988  0.760921  0.483631  1
  H  H24  1  0.745012  0.239079  0.516369  1
  O  O25  1  0.494461  0.180622  0.717416  1
  O  O26  1  0.505539  0.819378  0.282584  1
  O  O27  1  0.213788  0.766042  0.747051  1
  O  O28  1  0.786212  0.233958  0.252949  1
 
# Source:                            Mencik:J.Polym.Sci.13.2173(1975)                                                
# Class:                             common_polymer_crystal                                                          
# Label:                             p-tetramethylene-terephthalate                                                  
# Structure prediction method used:  NA                                                                              
# Number of atoms:                    28
# Number of atom types:                3
# Atom types:                         C  H  O
# Dielectric constant, electronic:   3.09924E+00
# Dielectric constant, ionic:        5.45901E-01
# Dielectric constant, total:        3.64514E+00
# Band gap at the GGA level (eV):    2.97620E+00
# Band gap at the HSE06 level (eV):  4.01490E+00
# Atomization energy (eV/atom):     -5.96527E+00
# Volume of the unit cell (A^3):     2.21177E+02
