# generated using pymatgen
data_H22C13O4
_symmetry_space_group_name_H-M   'P 1'
_cell_length_a   4.13518932
_cell_length_b   7.90153264
_cell_length_c   34.61116297
_cell_angle_alpha   90.00000000
_cell_angle_beta   90.00000000
_cell_angle_gamma   90.00000000
_symmetry_Int_Tables_number   1
_chemical_formula_structural   H22C13O4
_chemical_formula_sum   'H88 C52 O16'
_cell_volume   1130.89667824
_cell_formula_units_Z   4
loop_
 _symmetry_equiv_pos_site_id
 _symmetry_equiv_pos_as_xyz
  1  'x, y, z'
loop_
 _atom_site_type_symbol
 _atom_site_label
 _atom_site_symmetry_multiplicity
 _atom_site_fract_x
 _atom_site_fract_y
 _atom_site_fract_z
 _atom_site_occupancy
  C  C1  1  0.684322  0.392828  0.842527  1
  C  C2  1  0.815678  0.607172  0.342527  1
  C  C3  1  0.315678  0.892828  0.657473  1
  C  C4  1  0.184322  0.107172  0.157473  1
  C  C5  1  0.888628  0.419390  0.806449  1
  C  C6  1  0.611372  0.580610  0.306449  1
  C  C7  1  0.111372  0.919390  0.693551  1
  C  C8  1  0.388628  0.080610  0.193551  1
  C  C9  1  0.680137  0.434165  0.769970  1
  C  C10  1  0.819863  0.565835  0.269970  1
  C  C11  1  0.319863  0.934165  0.730030  1
  C  C12  1  0.180137  0.065835  0.230030  1
  C  C13  1  0.883104  0.444885  0.733025  1
  C  C14  1  0.616896  0.555115  0.233025  1
  C  C15  1  0.116896  0.944885  0.766975  1
  C  C16  1  0.383104  0.055115  0.266975  1
  C  C17  1  0.679010  0.445897  0.696107  1
  C  C18  1  0.820990  0.554103  0.196107  1
  C  C19  1  0.320990  0.945897  0.803893  1
  C  C20  1  0.179010  0.054103  0.303893  1
  C  C21  1  0.882231  0.460103  0.659233  1
  C  C22  1  0.617769  0.539897  0.159233  1
  C  C23  1  0.117769  0.960103  0.840767  1
  C  C24  1  0.382231  0.039897  0.340767  1
  C  C25  1  0.674546  0.457228  0.622599  1
  C  C26  1  0.825454  0.542772  0.122599  1
  C  C27  1  0.325454  0.957228  0.877401  1
  C  C28  1  0.174546  0.042772  0.377401  1
  C  C29  1  0.875242  0.460550  0.585062  1
  C  C30  1  0.624758  0.539450  0.085062  1
  C  C31  1  0.124758  0.960550  0.914938  1
  C  C32  1  0.375242  0.039450  0.414938  1
  C  C33  1  0.672224  0.404515  0.551280  1
  C  C34  1  0.827776  0.595485  0.051280  1
  C  C35  1  0.327776  0.904515  0.948720  1
  C  C36  1  0.172224  0.095485  0.448720  1
  C  C37  1  0.484742  0.462644  0.486413  1
  C  C38  1  0.015258  0.537356  0.986413  1
  C  C39  1  0.515258  0.962644  0.013587  1
  C  C40  1  0.984742  0.037356  0.513587  1
  C  C41  1  0.426426  0.625257  0.464215  1
  C  C42  1  0.073574  0.374743  0.964215  1
  C  C43  1  0.573574  0.125257  0.035785  1
  C  C44  1  0.926426  0.874743  0.535785  1
  C  C45  1  0.237995  0.593765  0.426207  1
  C  C46  1  0.262005  0.406235  0.926207  1
  C  C47  1  0.762005  0.093765  0.073793  1
  C  C48  1  0.737995  0.906235  0.573793  1
  C  C49  1  0.452103  0.530365  0.393975  1
  C  C50  1  0.047897  0.469635  0.893975  1
  C  C51  1  0.547897  0.030365  0.106025  1
  C  C52  1  0.952103  0.969635  0.606025  1
  H  H53  1  0.553395  0.507609  0.850433  1
  H  H54  1  0.946605  0.492391  0.350433  1
  H  H55  1  0.446605  0.007609  0.649567  1
  H  H56  1  0.053395  0.992391  0.149567  1
  H  H57  1  0.516191  0.287773  0.839111  1
  H  H58  1  0.983809  0.712227  0.339111  1
  H  H59  1  0.483809  0.787773  0.660889  1
  H  H60  1  0.016191  0.212227  0.160889  1
  H  H61  1  0.052271  0.311311  0.803263  1
  H  H62  1  0.447729  0.688689  0.303263  1
  H  H63  1  0.947729  0.811311  0.696737  1
  H  H64  1  0.552271  0.188689  0.196737  1
  H  H65  1  0.038063  0.532964  0.809966  1
  H  H66  1  0.461937  0.467036  0.309966  1
  H  H67  1  0.961937  0.032964  0.690034  1
  H  H68  1  0.538063  0.967036  0.190034  1
  H  H69  1  0.521871  0.545530  0.772113  1
  H  H70  1  0.978129  0.454470  0.272113  1
  H  H71  1  0.478129  0.045530  0.727887  1
  H  H72  1  0.021871  0.954470  0.227887  1
  H  H73  1  0.520404  0.323422  0.768067  1
  H  H74  1  0.979596  0.676578  0.268067  1
  H  H75  1  0.479596  0.823422  0.731933  1
  H  H76  1  0.020404  0.176578  0.231933  1
  H  H77  1  0.034948  0.558960  0.734098  1
  H  H78  1  0.465052  0.441040  0.234098  1
  H  H79  1  0.965052  0.058960  0.765902  1
  H  H80  1  0.534948  0.941040  0.265902  1
  H  H81  1  0.050246  0.336868  0.732035  1
  H  H82  1  0.449754  0.663132  0.232035  1
  H  H83  1  0.949754  0.836868  0.767965  1
  H  H84  1  0.550246  0.163132  0.267965  1
  H  H85  1  0.504195  0.550312  0.697492  1
  H  H86  1  0.995805  0.449688  0.197492  1
  H  H87  1  0.495805  0.050312  0.802508  1
  H  H88  1  0.004195  0.949688  0.302508  1
  H  H89  1  0.534328  0.329071  0.694873  1
  H  H90  1  0.965672  0.670929  0.194873  1
  H  H91  1  0.465672  0.829071  0.805127  1
  H  H92  1  0.034328  0.170929  0.305127  1
  H  H93  1  0.026183  0.576104  0.660141  1
  H  H94  1  0.473817  0.423896  0.160141  1
  H  H95  1  0.973817  0.076104  0.839859  1
  H  H96  1  0.526183  0.923896  0.339859  1
  H  H97  1  0.052344  0.354247  0.658144  1
  H  H98  1  0.447656  0.645753  0.158144  1
  H  H99  1  0.947656  0.854247  0.841856  1
  H  H100  1  0.552344  0.145753  0.341856  1
  H  H101  1  0.504207  0.563653  0.622651  1
  H  H102  1  0.995793  0.436347  0.122651  1
  H  H103  1  0.495793  0.063653  0.877349  1
  H  H104  1  0.004207  0.936347  0.377349  1
  H  H105  1  0.530311  0.341275  0.622572  1
  H  H106  1  0.969689  0.658725  0.122572  1
  H  H107  1  0.469689  0.841275  0.877428  1
  H  H108  1  0.030311  0.158725  0.377428  1
  H  H109  1  0.068682  0.367609  0.587422  1
  H  H110  1  0.431318  0.632391  0.087422  1
  H  H111  1  0.931318  0.867609  0.912578  1
  H  H112  1  0.568682  0.132391  0.412578  1
  H  H113  1  0.984743  0.583783  0.579687  1
  H  H114  1  0.515257  0.416217  0.079687  1
  H  H115  1  0.015257  0.083783  0.920313  1
  H  H116  1  0.484743  0.916217  0.420313  1
  H  H117  1  0.258872  0.410987  0.497321  1
  H  H118  1  0.241128  0.589013  0.997321  1
  H  H119  1  0.741128  0.910987  0.002679  1
  H  H120  1  0.758872  0.089013  0.502679  1
  H  H121  1  0.613447  0.366622  0.470016  1
  H  H122  1  0.886553  0.633378  0.970016  1
  H  H123  1  0.386553  0.866622  0.029984  1
  H  H124  1  0.113447  0.133378  0.529984  1
  H  H125  1  0.654849  0.690141  0.458089  1
  H  H126  1  0.845151  0.309859  0.958089  1
  H  H127  1  0.345151  0.190141  0.041911  1
  H  H128  1  0.154849  0.809859  0.541911  1
  H  H129  1  0.283967  0.710526  0.482028  1
  H  H130  1  0.216033  0.289474  0.982028  1
  H  H131  1  0.716033  0.210526  0.017972  1
  H  H132  1  0.783967  0.789474  0.517972  1
  H  H133  1  0.052647  0.497837  0.430853  1
  H  H134  1  0.447353  0.502163  0.930853  1
  H  H135  1  0.947353  0.997837  0.069147  1
  H  H136  1  0.552647  0.002163  0.569147  1
  H  H137  1  0.123769  0.711539  0.417065  1
  H  H138  1  0.376231  0.288461  0.917065  1
  H  H139  1  0.876231  0.211539  0.082935  1
  H  H140  1  0.623769  0.788461  0.582935  1
  O  O141  1  0.611049  0.659843  0.375538  1
  O  O142  1  0.888951  0.340157  0.875538  1
  O  O143  1  0.388951  0.159843  0.124462  1
  O  O144  1  0.111049  0.840157  0.624462  1
  O  O145  1  0.486600  0.382555  0.384336  1
  O  O146  1  0.013400  0.617445  0.884336  1
  O  O147  1  0.513400  0.882555  0.115664  1
  O  O148  1  0.986600  0.117445  0.615664  1
  O  O149  1  0.501532  0.277248  0.551502  1
  O  O150  1  0.998468  0.722752  0.051502  1
  O  O151  1  0.498468  0.777248  0.948498  1
  O  O152  1  0.001532  0.222752  0.448498  1
  O  O153  1  0.692413  0.508584  0.519983  1
  O  O154  1  0.807587  0.491416  0.019983  1
  O  O155  1  0.307587  0.008584  0.980017  1
  O  O156  1  0.192413  0.991416  0.480017  1
 
# Source:                            Jourdan_etal:Macromolecules.28.8086(1995)                                       
# Class:                             common_polymer_crystal                                                          
# Label:                             p-trimethylene-sebacate                                                         
# Structure prediction method used:  NA                                                                              
# Number of atoms:                   156
# Number of atom types:                3
# Atom types:                         C  H  O
# Dielectric constant, electronic:   2.65817E+00
# Dielectric constant, ionic:        4.02442E-01
# Dielectric constant, total:        3.06061E+00
# Band gap at the GGA level (eV):    4.66310E+00
# Band gap at the HSE06 level (eV):  6.59870E+00
# Atomization energy (eV/atom):     -5.41390E+00
# Volume of the unit cell (A^3):     1.13090E+03
