# generated using pymatgen
data_H2C
_symmetry_space_group_name_H-M   'P 1'
_cell_length_a   5.08343303
_cell_length_b   7.15646035
_cell_length_c   13.86437337
_cell_angle_alpha   90.07432327
_cell_angle_beta   90.01212119
_cell_angle_gamma   90.00360369
_symmetry_Int_Tables_number   1
_chemical_formula_structural   H2C
_chemical_formula_sum   'H48 C24'
_cell_volume   504.376966132
_cell_formula_units_Z   24
loop_
 _symmetry_equiv_pos_site_id
 _symmetry_equiv_pos_as_xyz
  1  'x, y, z'
loop_
 _atom_site_type_symbol
 _atom_site_label
 _atom_site_symmetry_multiplicity
 _atom_site_fract_x
 _atom_site_fract_y
 _atom_site_fract_z
 _atom_site_occupancy
  C  C1  1  0.567240  0.149763  0.400008  1
  C  C2  1  0.532875  0.649762  0.399913  1
  C  C3  1  0.067673  0.148861  0.899641  1
  C  C4  1  0.033185  0.648724  0.900211  1
  C  C5  1  0.728534  0.267728  0.471932  1
  C  C6  1  0.371553  0.767350  0.328002  1
  C  C7  1  0.728560  0.031904  0.328073  1
  C  C8  1  0.371540  0.532247  0.471827  1
  C  C9  1  0.228770  0.266356  0.971847  1
  C  C10  1  0.872082  0.765967  0.828088  1
  C  C11  1  0.229192  0.030459  0.828009  1
  C  C12  1  0.871699  0.530861  0.971914  1
  C  C13  1  0.887044  0.142732  0.541143  1
  C  C14  1  0.212992  0.641943  0.258849  1
  C  C15  1  0.886980  0.157057  0.258939  1
  C  C16  1  0.213045  0.657766  0.540905  1
  C  C17  1  0.386751  0.140956  0.041011  1
  C  C18  1  0.713823  0.640280  0.758984  1
  C  C19  1  0.388204  0.155184  0.758842  1
  C  C20  1  0.712885  0.656094  0.041042  1
  C  C21  1  0.550090  0.400240  0.530769  1
  C  C22  1  0.550043  0.899502  0.269149  1
  C  C23  1  0.050084  0.398594  0.030765  1
  C  C24  1  0.050939  0.897781  0.769148  1
  H  H25  1  0.925149  0.313774  0.078049  1
  H  H26  1  0.174702  0.483317  0.078337  1
  H  H27  1  0.369374  0.352021  0.931660  1
  H  H28  1  0.731657  0.445163  0.931350  1
  H  H29  1  0.475397  0.223773  0.099021  1
  H  H30  1  0.257780  0.036479  0.074464  1
  H  H31  1  0.545743  0.066212  0.004485  1
  H  H32  1  0.937061  0.058676  0.942109  1
  H  H33  1  0.939194  0.239859  0.856746  1
  H  H34  1  0.163461  0.558191  0.857677  1
  H  H35  1  0.162029  0.739808  0.943045  1
  H  H36  1  0.623465  0.573198  0.098725  1
  H  H37  1  0.554473  0.730952  0.004329  1
  H  H38  1  0.841493  0.760444  0.074915  1
  H  H39  1  0.369183  0.945049  0.868649  1
  H  H40  1  0.731689  0.851918  0.868310  1
  H  H41  1  0.176037  0.812574  0.722029  1
  H  H42  1  0.926555  0.982131  0.721423  1
  H  H43  1  0.842619  0.535644  0.725465  1
  H  H44  1  0.624941  0.722796  0.701030  1
  H  H45  1  0.555007  0.565709  0.795596  1
  H  H46  1  0.546547  0.230384  0.795538  1
  H  H47  1  0.259691  0.259238  0.724802  1
  H  H48  1  0.477821  0.071806  0.701260  1
  H  H49  1  0.437740  0.059100  0.442676  1
  H  H50  1  0.437609  0.240356  0.357342  1
  H  H51  1  0.868831  0.353262  0.431527  1
  H  H52  1  0.868885  0.946368  0.368479  1
  H  H53  1  0.674835  0.814656  0.221719  1
  H  H54  1  0.425253  0.984156  0.221715  1
  H  H55  1  0.231326  0.853108  0.368411  1
  H  H56  1  0.758356  0.038376  0.574819  1
  H  H57  1  0.045855  0.067903  0.504568  1
  H  H58  1  0.975965  0.225847  0.598982  1
  H  H59  1  0.674976  0.485245  0.578103  1
  H  H60  1  0.425390  0.315724  0.578291  1
  H  H61  1  0.054553  0.732602  0.504217  1
  H  H62  1  0.123732  0.575050  0.598681  1
  H  H63  1  0.341825  0.762173  0.574664  1
  H  H64  1  0.231285  0.446444  0.431419  1
  H  H65  1  0.662372  0.558932  0.357233  1
  H  H66  1  0.662500  0.740560  0.442589  1
  H  H67  1  0.341669  0.537446  0.225153  1
  H  H68  1  0.123890  0.724691  0.201027  1
  H  H69  1  0.054326  0.567222  0.295479  1
  H  H70  1  0.758190  0.261280  0.225185  1
  H  H71  1  0.976178  0.074009  0.201157  1
  H  H72  1  0.045568  0.232050  0.295589  1
 
# Source:                            DeRosa-Corradini:Macromolecules.26.5711(1993)                                   
# Class:                             common_polymer_crystal                                                          
# Label:                             syndiotactic-polypropylene                                                      
# Structure prediction method used:  NA                                                                              
# Number of atoms:                    72
# Number of atom types:                2
# Atom types:                         C  H
# Dielectric constant, electronic:   2.59189E+00
# Dielectric constant, ionic:        2.96020E-02
# Dielectric constant, total:        2.62149E+00
# Band gap at the GGA level (eV):    5.99560E+00
# Band gap at the HSE06 level (eV):  7.36640E+00
# Atomization energy (eV/atom):     -5.14386E+00
# Volume of the unit cell (A^3):     5.04377E+02
