# generated using pymatgen
data_H4C5O2
_symmetry_space_group_name_H-M   'P 1'
_cell_length_a   4.24908004
_cell_length_b   5.74006477
_cell_length_c   7.79979962
_cell_angle_alpha   86.09978909
_cell_angle_beta   85.01708191
_cell_angle_gamma   69.96276443
_symmetry_Int_Tables_number   1
_chemical_formula_structural   H4C5O2
_chemical_formula_sum   'H8 C10 O4'
_cell_volume   177.897773282
_cell_formula_units_Z   2
loop_
 _symmetry_equiv_pos_site_id
 _symmetry_equiv_pos_as_xyz
  1  'x, y, z'
loop_
 _atom_site_type_symbol
 _atom_site_label
 _atom_site_symmetry_multiplicity
 _atom_site_fract_x
 _atom_site_fract_y
 _atom_site_fract_z
 _atom_site_occupancy
  C  C1  1  0.916129  0.287578  0.113611  1
  C  C2  1  0.483948  0.212441  0.386430  1
  C  C3  1  0.160597  0.322898  0.974868  1
  C  C4  1  0.239416  0.177143  0.525151  1
  C  C5  1  0.666208  0.490476  0.188657  1
  C  C6  1  0.733886  0.009541  0.311389  1
  C  C7  1  0.947249  0.046554  0.175293  1
  C  C8  1  0.452849  0.453464  0.324754  1
  C  C9  1  0.315886  0.640005  0.799060  1
  C  C10  1  0.084083  0.860046  0.700958  1
  O  O11  1  0.397559  0.153613  0.911593  1
  O  O12  1  0.002426  0.346437  0.588400  1
  O  O13  1  0.093457  0.568178  0.930954  1
  O  O14  1  0.306520  0.931867  0.569066  1
  H  H15  1  0.757952  0.824526  0.360574  1
  H  H16  1  0.136664  0.890658  0.115595  1
  H  H17  1  0.263457  0.609364  0.384458  1
  H  H18  1  0.642156  0.675492  0.139476  1
  H  H19  1  0.950809  0.014746  0.781909  1
  H  H20  1  0.905055  0.805764  0.635612  1
  H  H21  1  0.449144  0.485309  0.718104  1
  H  H22  1  0.494934  0.694274  0.864402  1
 
# Source:                            Daubeny-Bunn:Proc.R.Soc.A.226.531(1954)                                         
# Class:                             common_polymer_crystal                                                          
# Label:                             polyethylene_terephthalate                                                      
# Structure prediction method used:  NA                                                                              
# Number of atoms:                    22
# Number of atom types:                3
# Atom types:                         C  O  H
# Dielectric constant, electronic:   3.26714E+00
# Dielectric constant, ionic:        5.55480E-01
# Dielectric constant, total:        3.82262E+00
# Band gap at the GGA level (eV):    2.87290E+00
# Band gap at the HSE06 level (eV):  3.86370E+00
# Atomization energy (eV/atom):     -6.18160E+00
# Volume of the unit cell (A^3):     1.77898E+02
