# generated using pymatgen
data_H7C7N
_symmetry_space_group_name_H-M   'P 1'
_cell_length_a   14.56314265
_cell_length_b   14.56314265
_cell_length_c   6.47907153
_cell_angle_alpha   90.00000000
_cell_angle_beta   90.00000000
_cell_angle_gamma   120.00000000
_symmetry_Int_Tables_number   1
_chemical_formula_structural   H7C7N
_chemical_formula_sum   'H63 C63 N9'
_cell_volume   1190.01822666
_cell_formula_units_Z   9
loop_
 _symmetry_equiv_pos_site_id
 _symmetry_equiv_pos_as_xyz
  1  'x, y, z'
loop_
 _atom_site_type_symbol
 _atom_site_label
 _atom_site_symmetry_multiplicity
 _atom_site_fract_x
 _atom_site_fract_y
 _atom_site_fract_z
 _atom_site_occupancy
  N  N1  1  0.434433  0.512002  0.290502  1
  N  N2  1  0.487998  0.922431  0.623835  1
  N  N3  1  0.077569  0.565567  0.957169  1
  N  N4  1  0.817779  0.774116  0.107987  1
  N  N5  1  0.225884  0.043663  0.441320  1
  N  N6  1  0.956337  0.182221  0.774653  1
  N  N7  1  0.908075  0.402822  0.349824  1
  N  N8  1  0.597178  0.505253  0.683157  1
  N  N9  1  0.494747  0.091925  0.016491  1
  C  C10  1  0.430077  0.417465  0.284248  1
  C  C11  1  0.582535  0.012611  0.617582  1
  C  C12  1  0.987389  0.569923  0.950915  1
  C  C13  1  0.337830  0.320664  0.320540  1
  C  C14  1  0.679336  0.017166  0.653873  1
  C  C15  1  0.982834  0.662170  0.987206  1
  C  C16  1  0.244240  0.322733  0.354163  1
  C  C17  1  0.677267  0.921507  0.687496  1
  C  C18  1  0.078493  0.755760  0.020829  1
  C  C19  1  0.247367  0.420033  0.356916  1
  C  C20  1  0.579967  0.827333  0.690249  1
  C  C21  1  0.172667  0.752633  0.023583  1
  C  C22  1  0.344487  0.513955  0.332869  1
  C  C23  1  0.486045  0.830533  0.666202  1
  C  C24  1  0.169467  0.655513  0.999536  1
  C  C25  1  0.353859  0.628111  0.625093  1
  C  C26  1  0.371889  0.725748  0.958427  1
  C  C27  1  0.274252  0.646141  0.291760  1
  C  C28  1  0.357729  0.622266  0.385515  1
  C  C29  1  0.377734  0.735464  0.718849  1
  C  C30  1  0.264536  0.642271  0.052182  1
  C  C31  1  0.716603  0.701922  0.061916  1
  C  C32  1  0.298078  0.014682  0.395249  1
  C  C33  1  0.985318  0.283397  0.728582  1
  C  C34  1  0.631704  0.719753  0.087127  1
  C  C35  1  0.280247  0.911951  0.420460  1
  C  C36  1  0.088049  0.368296  0.753793  1
  C  C37  1  0.652418  0.818416  0.160869  1
  C  C38  1  0.181584  0.834001  0.494203  1
  C  C39  1  0.165999  0.347582  0.827536  1
  C  C40  1  0.756388  0.893519  0.211413  1
  C  C41  1  0.106481  0.862870  0.544746  1
  C  C42  1  0.137130  0.243612  0.878079  1
  C  C43  1  0.836958  0.868124  0.187021  1
  C  C44  1  0.131876  0.968834  0.520355  1
  C  C45  1  0.031166  0.163042  0.853688  1
  C  C46  1  0.947501  0.950608  0.501842  1
  C  C47  1  0.049392  0.996893  0.835175  1
  C  C48  1  0.003107  0.052499  0.168508  1
  C  C49  1  0.948594  0.940691  0.264891  1
  C  C50  1  0.059309  0.007903  0.598224  1
  C  C51  1  0.992097  0.051406  0.931557  1
  C  C52  1  0.986128  0.386260  0.284721  1
  C  C53  1  0.613740  0.599868  0.618055  1
  C  C54  1  0.400132  0.013872  0.951388  1
  C  C55  1  0.969905  0.288067  0.220076  1
  C  C56  1  0.711933  0.681839  0.553409  1
  C  C57  1  0.318161  0.030095  0.886743  1
  C  C58  1  0.866623  0.202391  0.218205  1
  C  C59  1  0.797609  0.664232  0.551539  1
  C  C60  1  0.335768  0.133377  0.884872  1
  C  C61  1  0.784697  0.217310  0.288145  1
  C  C62  1  0.782690  0.567387  0.621479  1
  C  C63  1  0.432613  0.215303  0.954812  1
  C  C64  1  0.808278  0.318719  0.352827  1
  C  C65  1  0.681281  0.489560  0.686161  1
  C  C66  1  0.510440  0.191722  0.019494  1
  C  C67  1  0.724704  0.339430  0.671809  1
  C  C68  1  0.660570  0.385274  0.005142  1
  C  C69  1  0.614726  0.275296  0.338475  1
  C  C70  1  0.725695  0.343547  0.433046  1
  C  C71  1  0.656453  0.382149  0.766380  1
  C  C72  1  0.617851  0.274305  0.099713  1
  H  H73  1  0.504946  0.420577  0.254324  1
  H  H74  1  0.579423  0.084368  0.587657  1
  H  H75  1  0.915632  0.495054  0.920991  1
  H  H76  1  0.338177  0.246373  0.323743  1
  H  H77  1  0.753627  0.091804  0.657076  1
  H  H78  1  0.908196  0.661823  0.990409  1
  H  H79  1  0.170222  0.249867  0.381945  1
  H  H80  1  0.750133  0.920355  0.715278  1
  H  H81  1  0.079645  0.829778  0.048612  1
  H  H82  1  0.176091  0.422971  0.387856  1
  H  H83  1  0.577029  0.753120  0.721189  1
  H  H84  1  0.246880  0.823909  0.054522  1
  H  H85  1  0.437101  0.682164  0.334438  1
  H  H86  1  0.317836  0.754937  0.667771  1
  H  H87  1  0.245063  0.562899  0.001104  1
  H  H88  1  0.407699  0.603979  0.692927  1
  H  H89  1  0.396021  0.803720  0.026260  1
  H  H90  1  0.196280  0.592301  0.359593  1
  H  H91  1  0.064427  0.455548  0.280141  1
  H  H92  1  0.544452  0.608879  0.613474  1
  H  H93  1  0.391121  0.935573  0.946808  1
  H  H94  1  0.703183  0.625857  0.006317  1
  H  H95  1  0.374143  0.077326  0.339651  1
  H  H96  1  0.922674  0.296817  0.672984  1
  H  H97  1  0.552035  0.656465  0.054708  1
  H  H98  1  0.343535  0.895570  0.388041  1
  H  H99  1  0.104430  0.447965  0.721374  1
  H  H100  1  0.589227  0.836706  0.181451  1
  H  H101  1  0.163294  0.752521  0.514784  1
  H  H102  1  0.247479  0.410773  0.848118  1
  H  H103  1  0.774229  0.969488  0.275351  1
  H  H104  1  0.030512  0.804741  0.608684  1
  H  H105  1  0.195259  0.225771  0.942017  1
  H  H106  1  0.849174  0.125945  0.158525  1
  H  H107  1  0.874055  0.723230  0.491858  1
  H  H108  1  0.276770  0.150826  0.825191  1
  H  H109  1  0.703790  0.151782  0.286868  1
  H  H110  1  0.848218  0.552008  0.620201  1
  H  H111  1  0.447992  0.296210  0.953534  1
  H  H112  1  0.036317  0.280213  0.169425  1
  H  H113  1  0.719787  0.756104  0.502758  1
  H  H114  1  0.243896  0.963683  0.836092  1
  H  H115  1  0.993705  0.901459  0.225619  1
  H  H116  1  0.098541  0.092246  0.558952  1
  H  H117  1  0.907754  0.006295  0.892285  1
  H  H118  1  0.907034  0.994665  0.541463  1
  H  H119  1  0.005335  0.912369  0.874797  1
  H  H120  1  0.087631  0.092966  0.208130  1
  H  H121  1  0.754374  0.425719  0.388073  1
  H  H122  1  0.574281  0.328655  0.721406  1
  H  H123  1  0.671345  0.245626  0.054739  1
  H  H124  1  0.694275  0.257124  0.721635  1
  H  H125  1  0.742876  0.437151  0.054968  1
  H  H126  1  0.562849  0.305725  0.388301  1
  H  H127  1  0.806705  0.384537  0.727668  1
  H  H128  1  0.615463  0.422168  0.061001  1
  H  H129  1  0.577832  0.193295  0.394335  1
  H  H130  1  0.274019  0.568188  0.673705  1
  H  H131  1  0.431812  0.705831  0.007038  1
  H  H132  1  0.294169  0.725981  0.340371  1
  H  H133  1  0.901740  0.872255  0.572815  1
  H  H134  1  0.127745  0.029486  0.906149  1
  H  H135  1  0.970514  0.098260  0.239482  1
 
# Source:                            Puterman_etal:J.Polym.Sci.15.805(1977)                                          
# Class:                             common_polymer_crystal                                                          
# Label:                             poly_2-vinylpyridine                                                            
# Structure prediction method used:  NA                                                                              
# Number of atoms:                   135
# Number of atom types:                3
# Atom types:                         N  C  H
# Dielectric constant, electronic:   2.92668E+00
# Dielectric constant, ionic:        1.36908E-01
# Dielectric constant, total:        3.06359E+00
# Band gap at the GGA level (eV):    3.48850E+00
# Band gap at the HSE06 level (eV):  4.54610E+00
# Atomization energy (eV/atom):     -5.99075E+00
# Volume of the unit cell (A^3):     1.19002E+03
