# generated using pymatgen
data_H3C3N
_symmetry_space_group_name_H-M   'P 1'
_cell_length_a   5.68676853
_cell_length_b   5.68676853
_cell_length_c   5.13150956
_cell_angle_alpha   90.00270314
_cell_angle_beta   90.00270314
_cell_angle_gamma   132.66741211
_symmetry_Int_Tables_number   1
_chemical_formula_structural   H3C3N
_chemical_formula_sum   'H6 C6 N2'
_cell_volume   122.02278143
_cell_formula_units_Z   2
loop_
 _symmetry_equiv_pos_site_id
 _symmetry_equiv_pos_as_xyz
  1  'x, y, z'
loop_
 _atom_site_type_symbol
 _atom_site_label
 _atom_site_symmetry_multiplicity
 _atom_site_fract_x
 _atom_site_fract_y
 _atom_site_fract_z
 _atom_site_occupancy
  C  C1  1  0.665037  0.665025  0.404306  1
  C  C2  1  0.665025  0.665037  0.904306  1
  C  C3  1  0.485405  0.468061  0.654285  1
  C  C4  1  0.468061  0.485405  0.154285  1
  C  C5  1  0.429189  0.175187  0.654273  1
  C  C6  1  0.175187  0.429189  0.154273  1
  H  H7  1  0.887399  0.717038  0.387878  1
  H  H8  1  0.717038  0.887399  0.887878  1
  H  H9  1  0.717197  0.887441  0.420732  1
  H  H10  1  0.887441  0.717197  0.920732  1
  H  H11  1  0.250280  0.395385  0.654272  1
  H  H12  1  0.395385  0.250280  0.154272  1
  N  N13  1  0.377771  0.939586  0.654253  1
  N  N14  1  0.939586  0.377771  0.154253  1
 
# Source:                            Hobson-Windle:Macromolecules.26.6903(1993)                                      
# Class:                             common_polymer_crystal                                                          
# Label:                             poly_acrylonitrile                                                              
# Structure prediction method used:  NA                                                                              
# Number of atoms:                    14
# Number of atom types:                3
# Atom types:                         C  H  N
# Dielectric constant, electronic:   2.73347E+00
# Dielectric constant, ionic:        5.00587E-01
# Dielectric constant, total:        3.23406E+00
# Band gap at the GGA level (eV):    6.06620E+00
# Band gap at the HSE06 level (eV):  7.58030E+00
# Atomization energy (eV/atom):     -6.10137E+00
# Volume of the unit cell (A^3):     1.22023E+02
