# generated using pymatgen
data_H6C13S4
_symmetry_space_group_name_H-M   'P 1'
_cell_length_a   3.80353373
_cell_length_b   5.75198152
_cell_length_c   12.93514456
_cell_angle_alpha   87.88313687
_cell_angle_beta   83.93572867
_cell_angle_gamma   88.35812015
_symmetry_Int_Tables_number   1
_chemical_formula_structural   H6C13S4
_chemical_formula_sum   'H6 C13 S4'
_cell_volume   281.13032091
_cell_formula_units_Z   1
loop_
 _symmetry_equiv_pos_site_id
 _symmetry_equiv_pos_as_xyz
  1  'x, y, z'
loop_
 _atom_site_type_symbol
 _atom_site_label
 _atom_site_symmetry_multiplicity
 _atom_site_fract_x
 _atom_site_fract_y
 _atom_site_fract_z
 _atom_site_occupancy
  C  C1  1  0.302613  0.296951  0.915548  1
  C  C2  1  0.302253  0.267476  0.287117  1
  C  C3  1  0.332929  0.274061  0.806738  1
  C  C4  1  0.273411  0.291038  0.179439  1
  C  C5  1  0.036017  0.720383  0.602467  1
  C  C6  1  0.032305  0.720421  0.494473  1
  C  C7  1  0.137433  0.505276  0.949091  1
  C  C8  1  0.174734  0.462961  0.341572  1
  C  C9  1  0.122238  0.503193  0.148585  1
  C  C10  1  0.194538  0.466106  0.753994  1
  C  C11  1  0.159996  0.513265  0.449667  1
  C  C12  1  0.169056  0.514101  0.645423  1
  C  C13  1  0.044584  0.605855  0.049509  1
  H  H14  1  0.356459  0.154160  0.127044  1
  H  H15  1  0.453182  0.122219  0.768451  1
  H  H16  1  0.943836  0.867128  0.649080  1
  H  H17  1  0.400104  0.163518  0.966647  1
  H  H18  1  0.418340  0.114304  0.323092  1
  H  H19  1  0.935694  0.866847  0.449379  1
  S  S20  1  0.828956  0.868581  0.051119  1
  S  S21  1  0.024934  0.677510  0.841437  1
  S  S22  1  0.013500  0.676808  0.257219  1
  S  S23  1  0.291988  0.315630  0.546539  1
 
# Source:                            Mannodi-Kanakkithodi_etal:SciRep.inpress(2016)                                  
# Class:                             organic_polymer_crystal                                                         
# Label:                             C4H2S-C4H2S-C4H2S-CS                                                            
# Structure prediction method used:  minima-hopping                                                                  
# Number of atoms:                    23
# Number of atom types:                3
# Atom types:                         C  H  S
# Dielectric constant, electronic:   1.02623E+01
# Dielectric constant, ionic:        1.73763E+00
# Dielectric constant, total:        1.19999E+01
# Band gap at the GGA level (eV):    3.46200E-01
# Band gap at the HSE06 level (eV):  7.50000E-01
# Atomization energy (eV/atom):     -6.13039E+00
# Volume of the unit cell (A^3):     2.81130E+02
