# generated using pymatgen
data_H6C12S3O
_symmetry_space_group_name_H-M   'P 1'
_cell_length_a   3.99562871
_cell_length_b   5.90020147
_cell_length_c   11.19546307
_cell_angle_alpha   102.56149308
_cell_angle_beta   91.09527671
_cell_angle_gamma   107.87417236
_symmetry_Int_Tables_number   1
_chemical_formula_structural   H6C12S3O
_chemical_formula_sum   'H6 C12 S3 O1'
_cell_volume   244.131415363
_cell_formula_units_Z   1
loop_
 _symmetry_equiv_pos_site_id
 _symmetry_equiv_pos_as_xyz
  1  'x, y, z'
loop_
 _atom_site_type_symbol
 _atom_site_label
 _atom_site_symmetry_multiplicity
 _atom_site_fract_x
 _atom_site_fract_y
 _atom_site_fract_z
 _atom_site_occupancy
  C  C1  1  0.242016  0.785081  0.062738  1
  C  C2  1  0.660381  0.427878  0.703567  1
  C  C3  1  0.135307  0.912590  0.171256  1
  C  C4  1  0.543521  0.524462  0.817600  1
  C  C5  1  0.577291  0.652239  0.415015  1
  C  C6  1  0.471861  0.760742  0.526535  1
  C  C7  1  0.120026  0.535949  0.051311  1
  C  C8  1  0.539897  0.175704  0.664727  1
  C  C9  1  0.330233  0.340651  0.864970  1
  C  C10  1  0.935352  0.763859  0.240929  1
  C  C11  1  0.595512  0.014435  0.556203  1
  C  C12  1  0.783524  0.819194  0.354613  1
  H  H13  1  0.615007  0.717653  0.859068  1
  H  H14  1  0.205431  0.110076  0.196635  1
  H  H15  1  0.505840  0.456052  0.379986  1
  H  H16  1  0.400417  0.877203  0.999806  1
  H  H17  1  0.826544  0.543759  0.650900  1
  H  H18  1  0.312588  0.655229  0.584876  1
  O  O19  1  0.145800  0.334257  0.967374  1
  S  S20  1  0.874645  0.453486  0.171539  1
  S  S21  1  0.276515  0.048561  0.773889  1
  S  S22  1  0.844519  0.120399  0.439327  1
 
# Source:                            Mannodi-Kanakkithodi_etal:SciRep.inpress(2016)                                  
# Class:                             organic_polymer_crystal                                                         
# Label:                             C4H2S-C4H2S-C4H2S-O                                                             
# Structure prediction method used:  minima-hopping                                                                  
# Number of atoms:                    22
# Number of atom types:                4
# Atom types:                         C  H  O  S
# Dielectric constant, electronic:   5.16623E+00
# Dielectric constant, ionic:        4.51715E-01
# Dielectric constant, total:        5.61795E+00
# Band gap at the GGA level (eV):    1.21700E+00
# Band gap at the HSE06 level (eV):  1.86380E+00
# Atomization energy (eV/atom):     -6.11977E+00
# Volume of the unit cell (A^3):     2.44131E+02
