# generated using pymatgen
data_H10(C6S)3
_symmetry_space_group_name_H-M   'P 1'
_cell_length_a   3.84297943
_cell_length_b   6.01323357
_cell_length_c   14.59396437
_cell_angle_alpha   87.50534257
_cell_angle_beta   86.35127892
_cell_angle_gamma   71.63885565
_symmetry_Int_Tables_number   1
_chemical_formula_structural   H10(C6S)3
_chemical_formula_sum   'H10 C18 S3'
_cell_volume   319.331710057
_cell_formula_units_Z   1
loop_
 _symmetry_equiv_pos_site_id
 _symmetry_equiv_pos_as_xyz
  1  'x, y, z'
loop_
 _atom_site_type_symbol
 _atom_site_label
 _atom_site_symmetry_multiplicity
 _atom_site_fract_x
 _atom_site_fract_y
 _atom_site_fract_z
 _atom_site_occupancy
  C  C1  1  0.910552  0.249916  0.907456  1
  C  C2  1  0.066578  0.285986  0.820833  1
  C  C3  1  0.689960  0.453658  0.948862  1
  C  C4  1  0.970592  0.519415  0.791238  1
  C  C5  1  0.491364  0.256603  0.084780  1
  C  C6  1  0.887928  0.250424  0.345414  1
  C  C7  1  0.307022  0.256546  0.168986  1
  C  C8  1  0.695155  0.286291  0.431178  1
  C  C9  1  0.489447  0.467788  0.037405  1
  C  C10  1  0.914696  0.453814  0.300967  1
  C  C11  1  0.374593  0.601711  0.542665  1
  C  C12  1  0.084532  0.602258  0.704261  1
  C  C13  1  0.103942  0.467842  0.212526  1
  C  C14  1  0.567535  0.519127  0.457053  1
  C  C15  1  0.207493  0.824457  0.576773  1
  C  C16  1  0.289616  0.678877  0.080747  1
  C  C17  1  0.043760  0.824879  0.666803  1
  C  C18  1  0.101552  0.678914  0.165765  1
  H  H19  1  0.283410  0.845479  0.047866  1
  H  H20  1  0.203207  0.982901  0.538062  1
  H  H21  1  0.250043  0.144600  0.780938  1
  H  H22  1  0.958745  0.077235  0.938543  1
  H  H23  1  0.322075  0.089364  0.202142  1
  H  H24  1  0.647342  0.145168  0.473402  1
  H  H25  1  0.638956  0.089445  0.054732  1
  H  H26  1  0.005111  0.078161  0.317068  1
  H  H27  1  0.899307  0.983863  0.702934  1
  H  H28  1  0.948408  0.845664  0.195929  1
  S  S29  1  0.681561  0.697583  0.876115  1
  S  S30  1  0.328585  0.389298  0.625032  1
  S  S31  1  0.687170  0.697252  0.369523  1
 
# Source:                            Mannodi-Kanakkithodi_etal:SciRep.inpress(2016)                                  
# Class:                             organic_polymer_crystal                                                         
# Label:                             C6H4-C4H2S-C4H2S-C4H2S                                                          
# Structure prediction method used:  minima-hopping                                                                  
# Number of atoms:                    31
# Number of atom types:                3
# Atom types:                         C  H  S
# Dielectric constant, electronic:   8.67094E+00
# Dielectric constant, ionic:        1.78045E-01
# Dielectric constant, total:        8.84899E+00
# Band gap at the GGA level (eV):    6.62900E-01
# Band gap at the HSE06 level (eV):  1.11280E+00
# Atomization energy (eV/atom):     -6.24185E+00
# Volume of the unit cell (A^3):     3.19332E+02
