# generated using pymatgen
data_H10C17S2
_symmetry_space_group_name_H-M   'P 1'
_cell_length_a   3.70757612
_cell_length_b   6.20816729
_cell_length_c   12.95860409
_cell_angle_alpha   84.13240202
_cell_angle_beta   84.95436719
_cell_angle_gamma   89.27211704
_symmetry_Int_Tables_number   1
_chemical_formula_structural   H10C17S2
_chemical_formula_sum   'H10 C17 S2'
_cell_volume   295.556928702
_cell_formula_units_Z   1
loop_
 _symmetry_equiv_pos_site_id
 _symmetry_equiv_pos_as_xyz
  1  'x, y, z'
loop_
 _atom_site_type_symbol
 _atom_site_label
 _atom_site_symmetry_multiplicity
 _atom_site_fract_x
 _atom_site_fract_y
 _atom_site_fract_z
 _atom_site_occupancy
  C  C1  1  0.973005  0.615711  0.241740  1
  C  C2  1  0.022608  0.710737  0.758372  1
  C  C3  1  0.014816  0.697847  0.138122  1
  C  C4  1  0.159045  0.632172  0.667141  1
  C  C5  1  0.831916  0.405638  0.272309  1
  C  C6  1  0.039462  0.588049  0.856605  1
  C  C7  1  0.476973  0.348649  0.569877  1
  C  C8  1  0.922857  0.572995  0.058839  1
  C  C9  1  0.320343  0.423683  0.666866  1
  C  C10  1  0.729844  0.338312  0.382279  1
  C  C11  1  0.761338  0.276126  0.193468  1
  C  C12  1  0.203590  0.381145  0.856126  1
  C  C13  1  0.590288  0.143991  0.545729  1
  C  C14  1  0.807628  0.358778  0.088792  1
  C  C15  1  0.333724  0.299363  0.763650  1
  C  C16  1  0.726598  0.137646  0.440203  1
  C  C17  1  0.899577  0.682179  0.951886  1
  H  H18  1  0.646379  0.115565  0.213723  1
  H  H19  1  0.233359  0.283011  0.928772  1
  H  H20  1  0.571534  0.002522  0.602272  1
  H  H21  1  0.119212  0.859924  0.116822  1
  H  H22  1  0.136785  0.732056  0.594108  1
  H  H23  1  0.049042  0.714760  0.300732  1
  H  H24  1  0.901512  0.870599  0.755825  1
  H  H25  1  0.727558  0.258941  0.031345  1
  H  H26  1  0.460087  0.140832  0.767950  1
  H  H27  1  0.826806  0.991697  0.407923  1
  S  S28  1  0.688191  0.921719  0.945500  1
  S  S29  1  0.552840  0.535498  0.459576  1
 
# Source:                            Mannodi-Kanakkithodi_etal:SciRep.inpress(2016)                                  
# Class:                             organic_polymer_crystal                                                         
# Label:                             C6H4-C4H2S-C6H4-CS                                                              
# Structure prediction method used:  minima-hopping                                                                  
# Number of atoms:                    29
# Number of atom types:                3
# Atom types:                         C  H  S
# Dielectric constant, electronic:   5.37979E+00
# Dielectric constant, ionic:        5.63693E-01
# Dielectric constant, total:        5.94348E+00
# Band gap at the GGA level (eV):    1.16410E+00
# Band gap at the HSE06 level (eV):  1.89960E+00
# Atomization energy (eV/atom):     -6.27168E+00
# Volume of the unit cell (A^3):     2.95557E+02
