# generated using pymatgen
data_H10C16SO
_symmetry_space_group_name_H-M   'P 1'
_cell_length_a   3.60907692
_cell_length_b   5.40184717
_cell_length_c   13.35551425
_cell_angle_alpha   89.54578519
_cell_angle_beta   89.19835854
_cell_angle_gamma   86.70208107
_symmetry_Int_Tables_number   1
_chemical_formula_structural   H10C16SO
_chemical_formula_sum   'H10 C16 S1 O1'
_cell_volume   259.911594631
_cell_formula_units_Z   1
loop_
 _symmetry_equiv_pos_site_id
 _symmetry_equiv_pos_as_xyz
  1  'x, y, z'
loop_
 _atom_site_type_symbol
 _atom_site_label
 _atom_site_symmetry_multiplicity
 _atom_site_fract_x
 _atom_site_fract_y
 _atom_site_fract_z
 _atom_site_occupancy
  C  C1  1  0.121228  0.324694  0.237802  1
  C  C2  1  0.183211  0.271078  0.798915  1
  C  C3  1  0.186357  0.272120  0.137598  1
  C  C4  1  0.117920  0.323612  0.698863  1
  C  C5  1  0.950130  0.554354  0.267888  1
  C  C6  1  0.081158  0.444693  0.873211  1
  C  C7  1  0.889771  0.616001  0.563199  1
  C  C8  1  0.082977  0.445361  0.062930  1
  C  C9  1  0.947813  0.553498  0.668554  1
  C  C10  1  0.891564  0.616694  0.373284  1
  C  C11  1  0.844093  0.723894  0.191604  1
  C  C12  1  0.906935  0.673062  0.845814  1
  C  C13  1  0.729224  0.830704  0.521109  1
  C  C14  1  0.908760  0.673777  0.090151  1
  C  C15  1  0.842338  0.723201  0.744535  1
  C  C16  1  0.730377  0.831170  0.415260  1
  H  H17  1  0.711964  0.901857  0.211429  1
  H  H18  1  0.824686  0.814208  0.899757  1
  H  H19  1  0.615485  0.985456  0.564773  1
  H  H20  1  0.318844  0.096647  0.114462  1
  H  H21  1  0.198649  0.184257  0.643390  1
  H  H22  1  0.202606  0.185519  0.293562  1
  H  H23  1  0.315523  0.095556  0.822177  1
  H  H24  1  0.826318  0.814875  0.035918  1
  H  H25  1  0.710657  0.901293  0.724561  1
  H  H26  1  0.617254  0.986199  0.371501  1
  O  O27  1  0.191060  0.361281  0.967902  1
  S  S28  1  0.041536  0.411246  0.468304  1
 
# Source:                            Mannodi-Kanakkithodi_etal:SciRep.inpress(2016)                                  
# Class:                             organic_polymer_crystal                                                         
# Label:                             C6H4-C4H2S-C6H4-O                                                               
# Structure prediction method used:  minima-hopping                                                                  
# Number of atoms:                    28
# Number of atom types:                4
# Atom types:                         C  H  O  S
# Dielectric constant, electronic:   4.52361E+00
# Dielectric constant, ionic:        3.70517E-01
# Dielectric constant, total:        4.89413E+00
# Band gap at the GGA level (eV):    1.49630E+00
# Band gap at the HSE06 level (eV):  2.17240E+00
# Atomization energy (eV/atom):     -6.29193E+00
# Volume of the unit cell (A^3):     2.59912E+02
