# generated using pymatgen
data_H10C16SO
_symmetry_space_group_name_H-M   'P 1'
_cell_length_a   3.78928759
_cell_length_b   5.96176284
_cell_length_c   11.99975663
_cell_angle_alpha   99.91798663
_cell_angle_beta   90.92069403
_cell_angle_gamma   105.88018097
_symmetry_Int_Tables_number   1
_chemical_formula_structural   H10C16SO
_chemical_formula_sum   'H10 C16 S1 O1'
_cell_volume   256.270182629
_cell_formula_units_Z   1
loop_
 _symmetry_equiv_pos_site_id
 _symmetry_equiv_pos_as_xyz
  1  'x, y, z'
loop_
 _atom_site_type_symbol
 _atom_site_label
 _atom_site_symmetry_multiplicity
 _atom_site_fract_x
 _atom_site_fract_y
 _atom_site_fract_z
 _atom_site_occupancy
  C  C1  1  0.848952  0.343489  0.135848  1
  C  C2  1  0.607502  0.737627  0.448021  1
  C  C3  1  0.767684  0.472856  0.234414  1
  C  C4  1  0.532085  0.859682  0.549959  1
  C  C5  1  0.063625  0.458555  0.057681  1
  C  C6  1  0.813986  0.855707  0.367809  1
  C  C7  1  0.572301  0.235576  0.685536  1
  C  C8  1  0.329592  0.341037  0.875268  1
  C  C9  1  0.895783  0.722671  0.259670  1
  C  C10  1  0.656873  0.108905  0.578962  1
  C  C11  1  0.663924  0.475744  0.728396  1
  C  C12  1  0.185058  0.706214  0.076666  1
  C  C13  1  0.939256  0.105042  0.397330  1
  C  C14  1  0.530190  0.538837  0.836640  1
  C  C15  1  0.101805  0.833471  0.177441  1
  C  C16  1  0.864053  0.228349  0.499368  1
  H  H17  1  0.345363  0.801832  0.017227  1
  H  H18  1  0.098964  0.206147  0.339581  1
  H  H19  1  0.826192  0.607746  0.684160  1
  H  H20  1  0.605726  0.375895  0.292948  1
  H  H21  1  0.371372  0.758692  0.608054  1
  H  H22  1  0.753097  0.151652  0.117996  1
  H  H23  1  0.502288  0.546607  0.431784  1
  H  H24  1  0.580368  0.720280  0.879405  1
  H  H25  1  0.205034  0.024619  0.191125  1
  H  H26  1  0.967184  0.419989  0.517548  1
  O  O27  1  0.134976  0.296977  0.968057  1
  S  S28  1  0.313034  0.077905  0.782239  1
 
# Source:                            Mannodi-Kanakkithodi_etal:SciRep.inpress(2016)                                  
# Class:                             organic_polymer_crystal                                                         
# Label:                             C6H4-C6H4-C4H2S-O                                                               
# Structure prediction method used:  minima-hopping                                                                  
# Number of atoms:                    28
# Number of atom types:                4
# Atom types:                         C  H  O  S
# Dielectric constant, electronic:   4.63738E+00
# Dielectric constant, ionic:        3.86635E-01
# Dielectric constant, total:        5.02401E+00
# Band gap at the GGA level (eV):    1.66100E+00
# Band gap at the HSE06 level (eV):  2.39700E+00
# Atomization energy (eV/atom):     -6.28618E+00
# Volume of the unit cell (A^3):     2.56270E+02
