# generated using pymatgen
data_H8C13SO
_symmetry_space_group_name_H-M   'P 1'
_cell_length_a   3.71873616
_cell_length_b   5.89345715
_cell_length_c   10.57740714
_cell_angle_alpha   90.17928095
_cell_angle_beta   98.54292780
_cell_angle_gamma   106.19623747
_symmetry_Int_Tables_number   1
_chemical_formula_structural   H8C13SO
_chemical_formula_sum   'H8 C13 S1 O1'
_cell_volume   219.903872483
_cell_formula_units_Z   1
loop_
 _symmetry_equiv_pos_site_id
 _symmetry_equiv_pos_as_xyz
  1  'x, y, z'
loop_
 _atom_site_type_symbol
 _atom_site_label
 _atom_site_symmetry_multiplicity
 _atom_site_fract_x
 _atom_site_fract_y
 _atom_site_fract_z
 _atom_site_occupancy
  C  C1  1  0.543082  0.349206  0.769770  1
  C  C2  1  0.899501  0.259230  0.392781  1
  C  C3  1  0.415390  0.341451  0.639203  1
  C  C4  1  0.713384  0.222976  0.267910  1
  C  C5  1  0.517926  0.536374  0.845718  1
  C  C6  1  0.092139  0.488892  0.445731  1
  C  C7  1  0.268571  0.519123  0.581752  1
  C  C8  1  0.716297  0.414818  0.188378  1
  C  C9  1  0.515354  0.367511  0.055984  1
  C  C10  1  0.391543  0.720820  0.792181  1
  C  C11  1  0.094572  0.679990  0.366072  1
  C  C12  1  0.270199  0.712645  0.660175  1
  C  C13  1  0.914592  0.644636  0.239146  1
  H  H14  1  0.370560  0.862059  0.853739  1
  H  H15  1  0.244936  0.858343  0.403124  1
  H  H16  1  0.441010  0.198526  0.579941  1
  H  H17  1  0.566953  0.045534  0.229478  1
  H  H18  1  0.672280  0.218025  0.811017  1
  H  H19  1  0.887716  0.107829  0.451791  1
  H  H20  1  0.145585  0.847792  0.620618  1
  H  H21  1  0.926316  0.794468  0.179287  1
  O  O22  1  0.644118  0.553937  0.979935  1
  S  S23  1  0.174167  0.123063  0.006898  1
 
# Source:                            Mannodi-Kanakkithodi_etal:SciRep.inpress(2016)                                  
# Class:                             organic_polymer_crystal                                                         
# Label:                             C6H4-C6H4-CS-O                                                                  
# Structure prediction method used:  minima-hopping                                                                  
# Number of atoms:                    23
# Number of atom types:                4
# Atom types:                         C  H  O  S
# Dielectric constant, electronic:   4.18365E+00
# Dielectric constant, ionic:        3.93797E-01
# Dielectric constant, total:        4.57744E+00
# Band gap at the GGA level (eV):    1.90580E+00
# Band gap at the HSE06 level (eV):  2.86650E+00
# Atomization energy (eV/atom):     -6.29229E+00
# Volume of the unit cell (A^3):     2.19904E+02
