# generated using pymatgen
data_H6C11S2O
_symmetry_space_group_name_H-M   'P 1'
_cell_length_a   3.74052436
_cell_length_b   6.77109129
_cell_length_c   9.64883397
_cell_angle_alpha   69.34843127
_cell_angle_beta   85.97278812
_cell_angle_gamma   75.58840751
_symmetry_Int_Tables_number   1
_chemical_formula_structural   H6C11S2O
_chemical_formula_sum   'H6 C11 S2 O1'
_cell_volume   221.439585733
_cell_formula_units_Z   1
loop_
 _symmetry_equiv_pos_site_id
 _symmetry_equiv_pos_as_xyz
  1  'x, y, z'
loop_
 _atom_site_type_symbol
 _atom_site_label
 _atom_site_symmetry_multiplicity
 _atom_site_fract_x
 _atom_site_fract_y
 _atom_site_fract_z
 _atom_site_occupancy
  C  C1  1  0.349486  0.248500  0.765227  1
  C  C2  1  0.230709  0.337754  0.616501  1
  C  C3  1  0.003831  0.548478  0.575398  1
  C  C4  1  0.215841  0.393027  0.839680  1
  C  C5  1  0.162353  0.671230  0.054900  1
  C  C6  1  0.049088  0.751774  0.170206  1
  C  C7  1  0.135202  0.461045  0.074393  1
  C  C8  1  0.922968  0.621518  0.304586  1
  C  C9  1  0.842646  0.693500  0.435234  1
  C  C10  1  0.977438  0.338921  0.199036  1
  C  C11  1  0.877234  0.417459  0.314565  1
  H  H12  1  0.944155  0.181322  0.207894  1
  H  H13  1  0.531130  0.089444  0.817134  1
  H  H14  1  0.306856  0.248082  0.541657  1
  H  H15  1  0.084269  0.910489  0.159197  1
  H  H16  1  0.287144  0.765477  0.957110  1
  H  H17  1  0.765987  0.317736  0.413348  1
  O  O18  1  0.314155  0.342589  0.982691  1
  S  S19  1  0.936574  0.640289  0.729170  1
  S  S20  1  0.569844  0.938878  0.414830  1
 
# Source:                            Mannodi-Kanakkithodi_etal:SciRep.inpress(2016)                                  
# Class:                             organic_polymer_crystal                                                         
# Label:                             C6H4-CS-C4H2S-O                                                                 
# Structure prediction method used:  minima-hopping                                                                  
# Number of atoms:                    20
# Number of atom types:                4
# Atom types:                         C  H  O  S
# Dielectric constant, electronic:   4.01763E+00
# Dielectric constant, ionic:        5.33876E-01
# Dielectric constant, total:        4.55151E+00
# Band gap at the GGA level (eV):    1.46840E+00
# Band gap at the HSE06 level (eV):  2.40380E+00
# Atomization energy (eV/atom):     -6.18030E+00
# Volume of the unit cell (A^3):     2.21440E+02
