# generated using pymatgen
data_H4C7S
_symmetry_space_group_name_H-M   'P 1'
_cell_length_a   5.19534326
_cell_length_b   5.25125798
_cell_length_c   11.02194369
_cell_angle_alpha   90.63307956
_cell_angle_beta   90.69346014
_cell_angle_gamma   116.07139605
_symmetry_Int_Tables_number   1
_chemical_formula_structural   H4C7S
_chemical_formula_sum   'H8 C14 S2'
_cell_volume   270.039735054
_cell_formula_units_Z   2
loop_
 _symmetry_equiv_pos_site_id
 _symmetry_equiv_pos_as_xyz
  1  'x, y, z'
loop_
 _atom_site_type_symbol
 _atom_site_label
 _atom_site_symmetry_multiplicity
 _atom_site_fract_x
 _atom_site_fract_y
 _atom_site_fract_z
 _atom_site_occupancy
  C  C1  1  0.405565  0.198531  0.115571  1
  C  C2  1  0.406149  0.198918  0.616134  1
  C  C3  1  0.404697  0.198461  0.242185  1
  C  C4  1  0.405987  0.197884  0.742745  1
  C  C5  1  0.519691  0.039764  0.051612  1
  C  C6  1  0.519415  0.040142  0.551627  1
  C  C7  1  0.518207  0.039940  0.306311  1
  C  C8  1  0.518995  0.038222  0.806332  1
  C  C9  1  0.402980  0.922611  0.927832  1
  C  C10  1  0.402042  0.924180  0.427782  1
  C  C11  1  0.676905  0.923975  0.116298  1
  C  C12  1  0.676185  0.923075  0.615797  1
  C  C13  1  0.676089  0.924131  0.242751  1
  C  C14  1  0.675796  0.922000  0.742244  1
  H  H15  1  0.775390  0.807871  0.069068  1
  H  H16  1  0.773982  0.806942  0.568106  1
  H  H17  1  0.289001  0.297683  0.289107  1
  H  H18  1  0.291030  0.297233  0.790126  1
  H  H19  1  0.290314  0.297587  0.067845  1
  H  H20  1  0.291078  0.298784  0.568851  1
  H  H21  1  0.774161  0.808321  0.290300  1
  H  H22  1  0.773461  0.805212  0.789336  1
  S  S23  1  0.105298  0.622694  0.924802  1
  S  S24  1  0.104168  0.624433  0.424604  1
 
# Source:                            Mannodi-Kanakkithodi_etal:SciRep.inpress(2016)                                  
# Class:                             organic_polymer_crystal                                                         
# Label:                             C6H4-CS-C6H4-CS                                                                 
# Structure prediction method used:  minima-hopping                                                                  
# Number of atoms:                    24
# Number of atom types:                3
# Atom types:                         C  H  S
# Dielectric constant, electronic:   3.58772E+00
# Dielectric constant, ionic:        2.09812E-01
# Dielectric constant, total:        3.79753E+00
# Band gap at the GGA level (eV):    7.20500E-01
# Band gap at the HSE06 level (eV):  1.80350E+00
# Atomization energy (eV/atom):     -6.16610E+00
# Volume of the unit cell (A^3):     2.70040E+02
