# generated using pymatgen
data_H8C13SO
_symmetry_space_group_name_H-M   'P 1'
_cell_length_a   4.83983856
_cell_length_b   10.21762906
_cell_length_c   10.22022092
_cell_angle_alpha   67.03309514
_cell_angle_beta   80.73748881
_cell_angle_gamma   80.74534761
_symmetry_Int_Tables_number   1
_chemical_formula_structural   H8C13SO
_chemical_formula_sum   'H16 C26 S2 O2'
_cell_volume   456.596648035
_cell_formula_units_Z   2
loop_
 _symmetry_equiv_pos_site_id
 _symmetry_equiv_pos_as_xyz
  1  'x, y, z'
loop_
 _atom_site_type_symbol
 _atom_site_label
 _atom_site_symmetry_multiplicity
 _atom_site_fract_x
 _atom_site_fract_y
 _atom_site_fract_z
 _atom_site_occupancy
  C  C1  1  0.757851  0.752760  0.351165  1
  C  C2  1  0.257862  0.252745  0.851201  1
  C  C3  1  0.663253  0.959393  0.663166  1
  C  C4  1  0.163212  0.459397  0.163156  1
  C  C5  1  0.573833  0.762776  0.466504  1
  C  C6  1  0.073818  0.262764  0.966532  1
  C  C7  1  0.479159  0.074730  0.673181  1
  C  C8  1  0.979104  0.574732  0.173159  1
  C  C9  1  0.685872  0.832854  0.212211  1
  C  C10  1  0.185921  0.332844  0.712242  1
  C  C11  1  0.919413  0.977728  0.572665  1
  C  C12  1  0.419376  0.477731  0.072657  1
  C  C13  1  0.317677  0.853282  0.448226  1
  C  C14  1  0.817670  0.353273  0.948242  1
  C  C15  1  0.551075  0.213732  0.593099  1
  C  C16  1  0.051009  0.713736  0.093068  1
  C  C17  1  0.118566  0.851602  0.574348  1
  C  C18  1  0.618542  0.351604  0.074356  1
  C  C19  1  0.433943  0.922685  0.190219  1
  C  C20  1  0.933998  0.422679  0.690236  1
  C  C21  1  0.984086  0.118902  0.491928  1
  C  C22  1  0.484034  0.618905  0.991909  1
  C  C23  1  0.252933  0.934031  0.307103  1
  C  C24  1  0.752955  0.434024  0.807112  1
  C  C25  1  0.803007  0.235783  0.503276  1
  C  C26  1  0.302941  0.735786  0.003247  1
  H  H27  1  0.381374  0.983039  0.082182  1
  H  H28  1  0.881463  0.483040  0.582195  1
  H  H29  1  0.180475  0.138137  0.423283  1
  H  H30  1  0.680423  0.638140  0.923264  1
  H  H31  1  0.630479  0.702269  0.573439  1
  H  H32  1  0.130440  0.202256  0.073471  1
  H  H33  1  0.279373  0.057417  0.739250  1
  H  H34  1  0.779317  0.557418  0.239228  1
  H  H35  1  0.457636  0.186665  0.868478  1
  H  H36  1  0.957628  0.686684  0.368430  1
  H  H37  1  0.606650  0.852421  0.723671  1
  H  H38  1  0.106617  0.352424  0.223668  1
  H  H39  1  0.056562  0.002680  0.287915  1
  H  H40  1  0.556593  0.502676  0.787912  1
  H  H41  1  0.855534  0.343866  0.442929  1
  H  H42  1  0.355454  0.843870  0.942892  1
  O  O43  1  0.368466  0.335599  0.590370  1
  O  O44  1  0.868389  0.835602  0.090332  1
  S  S45  1  0.118597  0.703700  0.722251  1
  S  S46  1  0.618577  0.203715  0.222273  1
 
# Source:                            Mannodi-Kanakkithodi_etal:SciRep.inpress(2016)                                  
# Class:                             organic_polymer_crystal                                                         
# Label:                             C6H4-CS-C6H4-O                                                                  
# Structure prediction method used:  minima-hopping                                                                  
# Number of atoms:                    46
# Number of atom types:                4
# Atom types:                         C  H  O  S
# Dielectric constant, electronic:   4.35435E+00
# Dielectric constant, ionic:        6.43030E-01
# Dielectric constant, total:        4.99738E+00
# Band gap at the GGA level (eV):    8.96200E-01
# Band gap at the HSE06 level (eV):  1.74120E+00
# Atomization energy (eV/atom):     -6.27566E+00
# Volume of the unit cell (A^3):     4.56597E+02
