# generated using pymatgen
data_H4C8S2O
_symmetry_space_group_name_H-M   'P 1'
_cell_length_a   3.74437560
_cell_length_b   6.77640745
_cell_length_c   7.35789674
_cell_angle_alpha   98.21968376
_cell_angle_beta   92.17891247
_cell_angle_gamma   105.99661653
_symmetry_Int_Tables_number   1
_chemical_formula_structural   H4C8S2O
_chemical_formula_sum   'H4 C8 S2 O1'
_cell_volume   177.033076685
_cell_formula_units_Z   1
loop_
 _symmetry_equiv_pos_site_id
 _symmetry_equiv_pos_as_xyz
  1  'x, y, z'
loop_
 _atom_site_type_symbol
 _atom_site_label
 _atom_site_symmetry_multiplicity
 _atom_site_fract_x
 _atom_site_fract_y
 _atom_site_fract_z
 _atom_site_occupancy
  C  C1  1  0.151721  0.712593  0.539533  1
  C  C2  1  0.104547  0.647585  0.709615  1
  C  C3  1  0.087840  0.564981  0.377066  1
  C  C4  1  0.017262  0.433643  0.722879  1
  C  C5  1  0.953415  0.351267  0.389417  1
  C  C6  1  0.930620  0.286161  0.559994  1
  C  C7  1  0.052524  0.369202  0.902900  1
  C  C8  1  0.188597  0.628686  0.199422  1
  H  H9  1  0.888856  0.237958  0.265054  1
  H  H10  1  0.155774  0.761201  0.833560  1
  H  H11  1  0.238172  0.877280  0.530990  1
  H  H12  1  0.848168  0.121471  0.568516  1
  O  O13  1  0.956519  0.499587  0.048127  1
  S  S14  1  0.523699  0.832709  0.170878  1
  S  S15  1  0.175659  0.163456  0.939137  1
 
# Source:                            Mannodi-Kanakkithodi_etal:SciRep.inpress(2016)                                  
# Class:                             organic_polymer_crystal                                                         
# Label:                             C6H4-CS-O-CS                                                                    
# Structure prediction method used:  minima-hopping                                                                  
# Number of atoms:                    15
# Number of atom types:                4
# Atom types:                         C  H  O  S
# Dielectric constant, electronic:   4.66044E+00
# Dielectric constant, ionic:        7.61841E-01
# Dielectric constant, total:        5.42228E+00
# Band gap at the GGA level (eV):    1.38500E+00
# Band gap at the HSE06 level (eV):  2.36400E+00
# Atomization energy (eV/atom):     -6.12530E+00
# Volume of the unit cell (A^3):     1.77033E+02
