# generated using pymatgen
data_H6C10SO2
_symmetry_space_group_name_H-M   'P 1'
_cell_length_a   5.76611092
_cell_length_b   7.07836421
_cell_length_c   9.69309215
_cell_angle_alpha   95.20312088
_cell_angle_beta   103.13096379
_cell_angle_gamma   101.66557113
_symmetry_Int_Tables_number   1
_chemical_formula_structural   H6C10SO2
_chemical_formula_sum   'H12 C20 S2 O4'
_cell_volume   373.426395625
_cell_formula_units_Z   2
loop_
 _symmetry_equiv_pos_site_id
 _symmetry_equiv_pos_as_xyz
  1  'x, y, z'
loop_
 _atom_site_type_symbol
 _atom_site_label
 _atom_site_symmetry_multiplicity
 _atom_site_fract_x
 _atom_site_fract_y
 _atom_site_fract_z
 _atom_site_occupancy
  C  C1  1  0.806433  0.675285  0.199696  1
  C  C2  1  0.306434  0.675284  0.699693  1
  C  C3  1  0.981170  0.566352  0.179072  1
  C  C4  1  0.481169  0.566349  0.679068  1
  C  C5  1  0.075492  0.608671  0.065685  1
  C  C6  1  0.575496  0.608670  0.565684  1
  C  C7  1  0.769645  0.797900  0.100303  1
  C  C8  1  0.269649  0.797902  0.600303  1
  C  C9  1  0.951082  0.142060  0.724072  1
  C  C10  1  0.451078  0.142060  0.224074  1
  C  C11  1  0.980335  0.295334  0.832578  1
  C  C12  1  0.480331  0.295331  0.332577  1
  C  C13  1  0.149567  0.061909  0.714114  1
  C  C14  1  0.649560  0.061907  0.214113  1
  C  C15  1  0.207642  0.365775  0.929420  1
  C  C16  1  0.707640  0.365771  0.429419  1
  C  C17  1  0.372152  0.122999  0.817535  1
  C  C18  1  0.872146  0.122998  0.317534  1
  C  C19  1  0.401608  0.277105  0.925206  1
  C  C20  1  0.901605  0.277102  0.425204  1
  H  H21  1  0.022093  0.053876  0.314547  1
  H  H22  1  0.522100  0.053879  0.814551  1
  H  H23  1  0.713297  0.665114  0.284399  1
  H  H24  1  0.213296  0.665113  0.784397  1
  H  H25  1  0.034958  0.460427  0.244894  1
  H  H26  1  0.534954  0.460422  0.744889  1
  H  H27  1  0.830920  0.363673  0.838224  1
  H  H28  1  0.330920  0.363672  0.338226  1
  H  H29  1  0.778454  0.089101  0.645128  1
  H  H30  1  0.278451  0.089100  0.145130  1
  H  H31  1  0.575108  0.331515  0.003507  1
  H  H32  1  0.075108  0.331512  0.503504  1
  O  O33  1  0.614990  0.924588  0.090951  1
  O  O34  1  0.114996  0.924592  0.590952  1
  O  O35  1  0.262124  0.535553  0.029889  1
  O  O36  1  0.762124  0.535550  0.529887  1
  S  S37  1  0.950261  0.787298  0.977179  1
  S  S38  1  0.450266  0.787300  0.477179  1
 
# Source:                            Mannodi-Kanakkithodi_etal:SciRep.inpress(2016)                                  
# Class:                             organic_polymer_crystal                                                         
# Label:                             C6H4-O-C4H2S-O                                                                  
# Structure prediction method used:  minima-hopping                                                                  
# Number of atoms:                    38
# Number of atom types:                4
# Atom types:                         C  H  O  S
# Dielectric constant, electronic:   3.43033E+00
# Dielectric constant, ionic:        3.76765E-01
# Dielectric constant, total:        3.80709E+00
# Band gap at the GGA level (eV):    2.94850E+00
# Band gap at the HSE06 level (eV):  4.03720E+00
# Atomization energy (eV/atom):     -6.18383E+00
# Volume of the unit cell (A^3):     3.73426E+02
