# generated using pymatgen
data_H4C6O
_symmetry_space_group_name_H-M   'P 1'
_cell_length_a   3.58404198
_cell_length_b   8.54131722
_cell_length_c   12.25120072
_cell_angle_alpha   85.87744259
_cell_angle_beta   89.57808281
_cell_angle_gamma   80.18270090
_symmetry_Int_Tables_number   1
_chemical_formula_structural   H4C6O
_chemical_formula_sum   'H16 C24 O4'
_cell_volume   368.586489271
_cell_formula_units_Z   4
loop_
 _symmetry_equiv_pos_site_id
 _symmetry_equiv_pos_as_xyz
  1  'x, y, z'
loop_
 _atom_site_type_symbol
 _atom_site_label
 _atom_site_symmetry_multiplicity
 _atom_site_fract_x
 _atom_site_fract_y
 _atom_site_fract_z
 _atom_site_occupancy
  C  C1  1  0.488229  0.887366  0.729490  1
  C  C2  1  0.988224  0.887360  0.229486  1
  C  C3  1  0.571013  0.269905  0.984668  1
  C  C4  1  0.071037  0.269901  0.484666  1
  C  C5  1  0.630641  0.728755  0.761982  1
  C  C6  1  0.130637  0.728756  0.261977  1
  C  C7  1  0.558168  0.173522  0.080996  1
  C  C8  1  0.058190  0.173520  0.580995  1
  C  C9  1  0.269408  0.982551  0.802557  1
  C  C10  1  0.769406  0.982542  0.302557  1
  C  C11  1  0.676056  0.419248  0.988653  1
  C  C12  1  0.176079  0.419244  0.488652  1
  C  C13  1  0.558276  0.664282  0.866463  1
  C  C14  1  0.058287  0.664273  0.366460  1
  C  C15  1  0.651570  0.227569  0.180359  1
  C  C16  1  0.151582  0.227571  0.680359  1
  C  C17  1  0.197036  0.918074  0.907046  1
  C  C18  1  0.697034  0.918070  0.407044  1
  C  C19  1  0.769463  0.473299  0.088027  1
  C  C20  1  0.269476  0.473298  0.588022  1
  C  C21  1  0.339456  0.759465  0.939538  1
  C  C22  1  0.839467  0.759454  0.439535  1
  C  C23  1  0.756616  0.376917  0.184347  1
  C  C24  1  0.256623  0.376921  0.684343  1
  H  H25  1  0.021366  0.992760  0.961597  1
  H  H26  1  0.521370  0.992749  0.461597  1
  H  H27  1  0.856491  0.588064  0.090839  1
  H  H28  1  0.356501  0.588066  0.590834  1
  H  H29  1  0.806356  0.654077  0.707433  1
  H  H30  1  0.306359  0.654073  0.207427  1
  H  H31  1  0.471177  0.058744  0.078174  1
  H  H32  1  0.971200  0.058742  0.578174  1
  H  H33  1  0.553216  0.935011  0.648879  1
  H  H34  1  0.053201  0.935008  0.148875  1
  H  H35  1  0.499314  0.230256  0.906966  1
  H  H36  1  0.999350  0.230248  0.406964  1
  H  H37  1  0.274453  0.711818  0.020146  1
  H  H38  1  0.774465  0.711809  0.520143  1
  H  H39  1  0.828297  0.416564  0.262051  1
  H  H40  1  0.328299  0.416571  0.762048  1
  O  O41  1  0.613326  0.143779  0.281763  1
  O  O42  1  0.113332  0.143784  0.781762  1
  O  O43  1  0.714377  0.503049  0.887265  1
  O  O44  1  0.214398  0.503045  0.387259  1
 
# Source:                            Mannodi-Kanakkithodi_etal:SciRep.inpress(2016)                                  
# Class:                             organic_polymer_crystal                                                         
# Label:                             C6H4-O-C6H4-O                                                                   
# Structure prediction method used:  minima-hopping                                                                  
# Number of atoms:                    44
# Number of atom types:                3
# Atom types:                         C  H  O
# Dielectric constant, electronic:   3.51591E+00
# Dielectric constant, ionic:        4.09895E-01
# Dielectric constant, total:        3.92580E+00
# Band gap at the GGA level (eV):    2.69060E+00
# Band gap at the HSE06 level (eV):  3.69660E+00
# Atomization energy (eV/atom):     -6.30106E+00
# Volume of the unit cell (A^3):     3.68586E+02
