# generated using pymatgen
data_H4C6S
_symmetry_space_group_name_H-M   'P 1'
_cell_length_a   5.31256552
_cell_length_b   5.84657519
_cell_length_c   8.89049794
_cell_angle_alpha   94.69927515
_cell_angle_beta   93.65698773
_cell_angle_gamma   116.72127860
_symmetry_Int_Tables_number   1
_chemical_formula_structural   H4C6S
_chemical_formula_sum   'H8 C12 S2'
_cell_volume   244.246438413
_cell_formula_units_Z   2
loop_
 _symmetry_equiv_pos_site_id
 _symmetry_equiv_pos_as_xyz
  1  'x, y, z'
loop_
 _atom_site_type_symbol
 _atom_site_label
 _atom_site_symmetry_multiplicity
 _atom_site_fract_x
 _atom_site_fract_y
 _atom_site_fract_z
 _atom_site_occupancy
  C  C1  1  0.960302  0.939975  0.709050  1
  C  C2  1  0.845173  0.973068  0.842768  1
  C  C3  1  0.919955  0.071074  0.594735  1
  C  C4  1  0.707582  0.122858  0.833268  1
  C  C5  1  0.557172  0.181277  0.957388  1
  C  C6  1  0.972995  0.811164  0.381172  1
  C  C7  1  0.088168  0.780918  0.250988  1
  C  C8  1  0.019815  0.058177  0.446174  1
  C  C9  1  0.256513  0.993412  0.175431  1
  C  C10  1  0.365163  0.946149  0.033414  1
  C  C11  1  0.184429  0.271966  0.372103  1
  C  C12  1  0.301749  0.240774  0.240081  1
  H  H13  1  0.232577  0.464787  0.422316  1
  H  H14  1  0.428791  0.270744  0.914529  1
  H  H15  1  0.857610  0.885360  0.943257  1
  H  H16  1  0.075964  0.828517  0.696974  1
  H  H17  1  0.715891  0.326781  0.045105  1
  H  H18  1  0.049424  0.590021  0.204326  1
  H  H19  1  0.844413  0.643586  0.435510  1
  H  H20  1  0.429524  0.411141  0.188116  1
  S  S21  1  0.726474  0.232123  0.654545  1
  S  S22  1  0.266948  0.647690  0.953146  1
 
# Source:                            Mannodi-Kanakkithodi_etal:SciRep.inpress(2016)                                  
# Class:                             organic_polymer_crystal                                                         
# Label:                             CH2-C4H2S-C6H4-CS                                                               
# Structure prediction method used:  minima-hopping                                                                  
# Number of atoms:                    22
# Number of atom types:                3
# Atom types:                         C  H  S
# Dielectric constant, electronic:   4.40414E+00
# Dielectric constant, ionic:        4.71614E-01
# Dielectric constant, total:        4.87575E+00
# Band gap at the GGA level (eV):    1.05180E+00
# Band gap at the HSE06 level (eV):  1.99590E+00
# Atomization energy (eV/atom):     -6.04966E+00
# Volume of the unit cell (A^3):     2.44246E+02
