# generated using pymatgen
data_H4C7S2O
_symmetry_space_group_name_H-M   'P 1'
_cell_length_a   3.93579490
_cell_length_b   8.51290378
_cell_length_c   10.04092365
_cell_angle_alpha   73.64996184
_cell_angle_beta   81.52491851
_cell_angle_gamma   86.76012979
_symmetry_Int_Tables_number   1
_chemical_formula_structural   H4C7S2O
_chemical_formula_sum   'H8 C14 S4 O2'
_cell_volume   319.2514578
_cell_formula_units_Z   2
loop_
 _symmetry_equiv_pos_site_id
 _symmetry_equiv_pos_as_xyz
  1  'x, y, z'
loop_
 _atom_site_type_symbol
 _atom_site_label
 _atom_site_symmetry_multiplicity
 _atom_site_fract_x
 _atom_site_fract_y
 _atom_site_fract_z
 _atom_site_occupancy
  C  C1  1  0.949421  0.110360  0.403319  1
  C  C2  1  0.449420  0.610364  0.903320  1
  C  C3  1  0.785866  0.198463  0.495474  1
  C  C4  1  0.285870  0.698463  0.995468  1
  C  C5  1  0.113198  0.967615  0.472468  1
  C  C6  1  0.613202  0.467614  0.972468  1
  C  C7  1  0.819072  0.122395  0.634735  1
  C  C8  1  0.319066  0.622396  0.134738  1
  C  C9  1  0.680656  0.174286  0.763238  1
  C  C10  1  0.180648  0.674288  0.263234  1
  C  C11  1  0.310735  0.843939  0.420914  1
  C  C12  1  0.810748  0.343933  0.920920  1
  C  C13  1  0.314718  0.834998  0.272796  1
  C  C14  1  0.814724  0.334997  0.772797  1
  H  H15  1  0.724275  0.077946  0.857995  1
  H  H16  1  0.224259  0.577947  0.357994  1
  H  H17  1  0.642995  0.311997  0.462625  1
  H  H18  1  0.142996  0.811998  0.962622  1
  H  H19  1  0.952452  0.148840  0.290875  1
  H  H20  1  0.452460  0.648840  0.790873  1
  H  H21  1  0.400232  0.190212  0.770733  1
  H  H22  1  0.900223  0.690216  0.270728  1
  O  O23  1  0.490601  0.738083  0.494996  1
  O  O24  1  0.990591  0.238090  0.994994  1
  S  S25  1  0.054505  0.941671  0.653512  1
  S  S26  1  0.554501  0.441671  0.153512  1
  S  S27  1  0.485796  0.984623  0.144565  1
  S  S28  1  0.985802  0.484623  0.644565  1
 
# Source:                            Mannodi-Kanakkithodi_etal:SciRep.inpress(2016)                                  
# Class:                             organic_polymer_crystal                                                         
# Label:                             CH2-C4H2S-CO-CS                                                                 
# Structure prediction method used:  minima-hopping                                                                  
# Number of atoms:                    28
# Number of atom types:                4
# Atom types:                         C  H  O  S
# Dielectric constant, electronic:   3.87134E+00
# Dielectric constant, ionic:        6.84320E-01
# Dielectric constant, total:        4.55566E+00
# Band gap at the GGA level (eV):    1.50640E+00
# Band gap at the HSE06 level (eV):  2.69300E+00
# Atomization energy (eV/atom):     -5.98934E+00
# Volume of the unit cell (A^3):     3.19251E+02
