# generated using pymatgen
data_H6C9S2O
_symmetry_space_group_name_H-M   'P 1'
_cell_length_a   4.40529448
_cell_length_b   7.91913126
_cell_length_c   11.18840282
_cell_angle_alpha   81.37285423
_cell_angle_beta   85.32673373
_cell_angle_gamma   83.84767519
_symmetry_Int_Tables_number   1
_chemical_formula_structural   H6C9S2O
_chemical_formula_sum   'H12 C18 S4 O2'
_cell_volume   382.830833656
_cell_formula_units_Z   2
loop_
 _symmetry_equiv_pos_site_id
 _symmetry_equiv_pos_as_xyz
  1  'x, y, z'
loop_
 _atom_site_type_symbol
 _atom_site_label
 _atom_site_symmetry_multiplicity
 _atom_site_fract_x
 _atom_site_fract_y
 _atom_site_fract_z
 _atom_site_occupancy
  C  C1  1  0.175424  0.609632  0.814280  1
  C  C2  1  0.673971  0.609279  0.313815  1
  C  C3  1  0.976755  0.091143  0.143443  1
  C  C4  1  0.477617  0.090632  0.643674  1
  C  C5  1  0.962105  0.753870  0.776970  1
  C  C6  1  0.460559  0.753503  0.276589  1
  C  C7  1  0.059869  0.216407  0.044249  1
  C  C8  1  0.560061  0.215691  0.544245  1
  C  C9  1  0.187547  0.579128  0.937238  1
  C  C10  1  0.686357  0.578720  0.436763  1
  C  C11  1  0.099222  0.105900  0.249940  1
  C  C12  1  0.600190  0.106002  0.750025  1
  C  C13  1  0.817991  0.831735  0.870906  1
  C  C14  1  0.316552  0.831287  0.370575  1
  C  C15  1  0.247156  0.326098  0.077509  1
  C  C16  1  0.746995  0.325837  0.577164  1
  C  C17  1  0.578408  0.985197  0.867385  1
  C  C18  1  0.076906  0.984716  0.367114  1
  H  H19  1  0.594542  0.052963  0.944694  1
  H  H20  1  0.092564  0.052166  0.444624  1
  H  H21  1  0.916049  0.797804  0.683195  1
  H  H22  1  0.414381  0.797490  0.182831  1
  H  H23  1  0.986831  0.227102  0.953369  1
  H  H24  1  0.486899  0.225850  0.453425  1
  H  H25  1  0.314921  0.533922  0.753885  1
  H  H26  1  0.813374  0.533614  0.253371  1
  H  H27  1  0.828229  0.992934  0.137693  1
  H  H28  1  0.329604  0.992082  0.638174  1
  H  H29  1  0.349531  0.940533  0.878293  1
  H  H30  1  0.848052  0.940040  0.377697  1
  O  O31  1  0.385963  0.458756  0.004300  1
  O  O32  1  0.885220  0.458434  0.503659  1
  S  S33  1  0.940808  0.725537  0.010009  1
  S  S34  1  0.439672  0.725062  0.509640  1
  S  S35  1  0.315498  0.282238  0.230990  1
  S  S36  1  0.815955  0.282597  0.730607  1
 
# Source:                            Mannodi-Kanakkithodi_etal:SciRep.inpress(2016)                                  
# Class:                             organic_polymer_crystal                                                         
# Label:                             CH2-C4H2S-O-C4H2S                                                               
# Structure prediction method used:  minima-hopping                                                                  
# Number of atoms:                    36
# Number of atom types:                4
# Atom types:                         C  H  O  S
# Dielectric constant, electronic:   3.38132E+00
# Dielectric constant, ionic:        2.57411E-01
# Dielectric constant, total:        3.63873E+00
# Band gap at the GGA level (eV):    3.20390E+00
# Band gap at the HSE06 level (eV):  4.26000E+00
# Atomization energy (eV/atom):     -5.92309E+00
# Volume of the unit cell (A^3):     3.82831E+02
