# generated using pymatgen
data_H10C14S
_symmetry_space_group_name_H-M   'P 1'
_cell_length_a   3.77233481
_cell_length_b   5.75637072
_cell_length_c   10.92306351
_cell_angle_alpha   87.89172289
_cell_angle_beta   80.64240822
_cell_angle_gamma   79.59026559
_symmetry_Int_Tables_number   1
_chemical_formula_structural   H10C14S
_chemical_formula_sum   'H10 C14 S1'
_cell_volume   230.178688951
_cell_formula_units_Z   1
loop_
 _symmetry_equiv_pos_site_id
 _symmetry_equiv_pos_as_xyz
  1  'x, y, z'
loop_
 _atom_site_type_symbol
 _atom_site_label
 _atom_site_symmetry_multiplicity
 _atom_site_fract_x
 _atom_site_fract_y
 _atom_site_fract_z
 _atom_site_occupancy
  C  C1  1  0.458472  0.668573  0.056065  1
  C  C2  1  0.388345  0.308480  0.361162  1
  C  C3  1  0.699210  0.418053  0.727022  1
  C  C4  1  0.219274  0.337636  0.483328  1
  C  C5  1  0.563751  0.441723  0.853040  1
  C  C6  1  0.377819  0.500343  0.276165  1
  C  C7  1  0.873021  0.592113  0.660914  1
  C  C8  1  0.606218  0.637255  0.919001  1
  C  C9  1  0.035227  0.561098  0.528847  1
  C  C10  1  0.184281  0.722916  0.320929  1
  C  C11  1  0.901706  0.792099  0.726054  1
  C  C12  1  0.021385  0.752162  0.444525  1
  C  C13  1  0.773965  0.812590  0.853195  1
  C  C14  1  0.559855  0.466705  0.146442  1
  H  H15  1  0.160384  0.875838  0.260093  1
  H  H16  1  0.048115  0.924194  0.679350  1
  H  H17  1  0.537380  0.827669  0.088451  1
  H  H18  1  0.159197  0.708224  0.068630  1
  H  H19  1  0.415707  0.310752  0.899807  1
  H  H20  1  0.236982  0.186932  0.546138  1
  H  H21  1  0.530340  0.135748  0.328953  1
  H  H22  1  0.658886  0.266737  0.678259  1
  H  H23  1  0.814043  0.964376  0.901843  1
  H  H24  1  0.875711  0.925217  0.475754  1
  S  S25  1  0.863514  0.226739  0.101751  1
 
# Source:                            Mannodi-Kanakkithodi_etal:SciRep.inpress(2016)                                  
# Class:                             organic_polymer_crystal                                                         
# Label:                             CH2-C6H4-C6H4-CS                                                                
# Structure prediction method used:  minima-hopping                                                                  
# Number of atoms:                    25
# Number of atom types:                3
# Atom types:                         C  H  S
# Dielectric constant, electronic:   4.20376E+00
# Dielectric constant, ionic:        2.66928E-01
# Dielectric constant, total:        4.47068E+00
# Band gap at the GGA level (eV):    1.52040E+00
# Band gap at the HSE06 level (eV):  2.55610E+00
# Atomization energy (eV/atom):     -6.16726E+00
# Volume of the unit cell (A^3):     2.30179E+02
