# generated using pymatgen
data_H10C12S
_symmetry_space_group_name_H-M   'P 1'
_cell_length_a   6.16402352
_cell_length_b   8.27274086
_cell_length_c   8.98842877
_cell_angle_alpha   72.38526756
_cell_angle_beta   87.03239326
_cell_angle_gamma   74.74280030
_symmetry_Int_Tables_number   1
_chemical_formula_structural   H10C12S
_chemical_formula_sum   'H20 C24 S2'
_cell_volume   421.268581509
_cell_formula_units_Z   2
loop_
 _symmetry_equiv_pos_site_id
 _symmetry_equiv_pos_as_xyz
  1  'x, y, z'
loop_
 _atom_site_type_symbol
 _atom_site_label
 _atom_site_symmetry_multiplicity
 _atom_site_fract_x
 _atom_site_fract_y
 _atom_site_fract_z
 _atom_site_occupancy
  C  C1  1  0.843771  0.710402  0.170245  1
  C  C2  1  0.343776  0.210401  0.170245  1
  C  C3  1  0.705279  0.750208  0.293410  1
  C  C4  1  0.205284  0.250209  0.293410  1
  C  C5  1  0.752692  0.630660  0.084978  1
  C  C6  1  0.252696  0.130659  0.084980  1
  C  C7  1  0.507371  0.701115  0.303283  1
  C  C8  1  0.007374  0.201117  0.303283  1
  C  C9  1  0.348677  0.078240  0.943168  1
  C  C10  1  0.848675  0.578241  0.943166  1
  C  C11  1  0.327960  0.716699  0.422359  1
  C  C12  1  0.827964  0.216701  0.422360  1
  C  C13  1  0.155083  0.326120  0.708287  1
  C  C14  1  0.655085  0.826121  0.708284  1
  C  C15  1  0.150320  0.478086  0.584712  1
  C  C16  1  0.650322  0.978088  0.584710  1
  C  C17  1  0.347451  0.239359  0.805012  1
  C  C18  1  0.847451  0.739361  0.805011  1
  C  C19  1  0.337409  0.547991  0.554901  1
  C  C20  1  0.837412  0.047993  0.554901  1
  C  C21  1  0.534993  0.309260  0.775799  1
  C  C22  1  0.034993  0.809262  0.775799  1
  C  C23  1  0.529925  0.461393  0.652477  1
  C  C24  1  0.029927  0.961395  0.652478  1
  H  H25  1  0.685693  0.242848  0.850022  1
  H  H26  1  0.185692  0.742850  0.850023  1
  H  H27  1  0.521447  0.996340  0.971206  1
  H  H28  1  0.021445  0.496341  0.971205  1
  H  H29  1  0.160831  0.764013  0.365975  1
  H  H30  1  0.660835  0.264018  0.365976  1
  H  H31  1  0.748319  0.814739  0.371856  1
  H  H32  1  0.248324  0.314740  0.371856  1
  H  H33  1  0.004756  0.740737  0.143985  1
  H  H34  1  0.504761  0.240736  0.143986  1
  H  H35  1  0.251826  0.998322  0.913230  1
  H  H36  1  0.751824  0.498325  0.913227  1
  H  H37  1  0.345931  0.819080  0.471061  1
  H  H38  1  0.845939  0.319081  0.471063  1
  H  H39  1  0.999987  0.543519  0.510624  1
  H  H40  1  0.499991  0.043520  0.510620  1
  H  H41  1  0.008494  0.273812  0.729826  1
  H  H42  1  0.508496  0.773813  0.729820  1
  H  H43  1  0.676336  0.513751  0.631207  1
  H  H44  1  0.176338  0.013754  0.631210  1
  S  S45  1  0.489891  0.606431  0.155612  1
  S  S46  1  0.989894  0.106432  0.155614  1
 
# Source:                            Mannodi-Kanakkithodi_etal:SciRep.inpress(2016)                                  
# Class:                             organic_polymer_crystal                                                         
# Label:                             CH2-C6H4-CH2-C4H2S                                                              
# Structure prediction method used:  minima-hopping                                                                  
# Number of atoms:                    46
# Number of atom types:                3
# Atom types:                         C  H  S
# Dielectric constant, electronic:   3.30259E+00
# Dielectric constant, ionic:        1.11716E-01
# Dielectric constant, total:        3.41431E+00
# Band gap at the GGA level (eV):    3.07930E+00
# Band gap at the HSE06 level (eV):  4.08310E+00
# Atomization energy (eV/atom):     -5.98649E+00
# Volume of the unit cell (A^3):     4.21269E+02
