# generated using pymatgen
data_H8C9S
_symmetry_space_group_name_H-M   'P 1'
_cell_length_a   5.21836912
_cell_length_b   8.08380902
_cell_length_c   8.19273281
_cell_angle_alpha   83.97433596
_cell_angle_beta   83.14663193
_cell_angle_gamma   85.84526694
_symmetry_Int_Tables_number   1
_chemical_formula_structural   H8C9S
_chemical_formula_sum   'H16 C18 S2'
_cell_volume   340.610416796
_cell_formula_units_Z   2
loop_
 _symmetry_equiv_pos_site_id
 _symmetry_equiv_pos_as_xyz
  1  'x, y, z'
loop_
 _atom_site_type_symbol
 _atom_site_label
 _atom_site_symmetry_multiplicity
 _atom_site_fract_x
 _atom_site_fract_y
 _atom_site_fract_z
 _atom_site_occupancy
  C  C1  1  0.013700  0.055316  0.181927  1
  C  C2  1  0.088300  0.748597  0.245094  1
  C  C3  1  0.790349  0.345660  0.184849  1
  C  C4  1  0.806298  0.515265  0.199633  1
  C  C5  1  0.978054  0.227656  0.241768  1
  C  C6  1  0.010373  0.570253  0.272921  1
  C  C7  1  0.909369  0.899577  0.280080  1
  C  C8  1  0.169028  0.281821  0.327177  1
  C  C9  1  0.182803  0.450526  0.344122  1
  C  C10  1  0.014361  0.054846  0.681964  1
  C  C11  1  0.088579  0.748122  0.745111  1
  C  C12  1  0.790748  0.345140  0.684839  1
  C  C13  1  0.806606  0.514770  0.699624  1
  C  C14  1  0.978523  0.227191  0.741771  1
  C  C15  1  0.010621  0.569787  0.772950  1
  C  C16  1  0.909741  0.899151  0.780048  1
  C  C17  1  0.169421  0.281406  0.827203  1
  C  C18  1  0.183075  0.450096  0.844172  1
  H  H19  1  0.317817  0.193085  0.371179  1
  H  H20  1  0.221610  0.029696  0.147786  1
  H  H21  1  0.254103  0.760057  0.314337  1
  H  H22  1  0.926745  0.061125  0.065498  1
  H  H23  1  0.173117  0.770003  0.115272  1
  H  H24  1  0.672043  0.605355  0.141906  1
  H  H25  1  0.642612  0.306817  0.116483  1
  H  H26  1  0.339431  0.490267  0.404205  1
  H  H27  1  0.318255  0.192695  0.871208  1
  H  H28  1  0.222322  0.029193  0.648085  1
  H  H29  1  0.254358  0.759557  0.814384  1
  H  H30  1  0.927787  0.060635  0.565405  1
  H  H31  1  0.173467  0.769495  0.615304  1
  H  H32  1  0.672363  0.604833  0.641871  1
  H  H33  1  0.643078  0.306268  0.616453  1
  H  H34  1  0.339655  0.489884  0.904282  1
  S  S35  1  0.637699  0.896357  0.404114  1
  S  S36  1  0.637969  0.896046  0.903976  1
 
# Source:                            Mannodi-Kanakkithodi_etal:SciRep.inpress(2016)                                  
# Class:                             organic_polymer_crystal                                                         
# Label:                             CH2-C6H4-CH2-CS                                                                 
# Structure prediction method used:  minima-hopping                                                                  
# Number of atoms:                    36
# Number of atom types:                3
# Atom types:                         C  H  S
# Dielectric constant, electronic:   3.46007E+00
# Dielectric constant, ionic:        2.18186E-01
# Dielectric constant, total:        3.67826E+00
# Band gap at the GGA level (eV):    1.86640E+00
# Band gap at the HSE06 level (eV):  2.92530E+00
# Atomization energy (eV/atom):     -5.85187E+00
# Volume of the unit cell (A^3):     3.40610E+02
