# generated using pymatgen
data_H10C14O
_symmetry_space_group_name_H-M   'P 1'
_cell_length_a   5.92553347
_cell_length_b   7.08441841
_cell_length_c   11.55978474
_cell_angle_alpha   92.64297179
_cell_angle_beta   104.74350891
_cell_angle_gamma   114.39538007
_symmetry_Int_Tables_number   1
_chemical_formula_structural   H10C14O
_chemical_formula_sum   'H20 C28 O2'
_cell_volume   421.04314228
_cell_formula_units_Z   2
loop_
 _symmetry_equiv_pos_site_id
 _symmetry_equiv_pos_as_xyz
  1  'x, y, z'
loop_
 _atom_site_type_symbol
 _atom_site_label
 _atom_site_symmetry_multiplicity
 _atom_site_fract_x
 _atom_site_fract_y
 _atom_site_fract_z
 _atom_site_occupancy
  C  C1  1  0.167840  0.685657  0.725087  1
  C  C2  1  0.167899  0.185671  0.225088  1
  C  C3  1  0.205819  0.937728  0.476686  1
  C  C4  1  0.205860  0.437753  0.976691  1
  C  C5  1  0.914293  0.362260  0.565948  1
  C  C6  1  0.914342  0.862271  0.065949  1
  C  C7  1  0.984572  0.614772  0.316086  1
  C  C8  1  0.984566  0.114785  0.816100  1
  C  C9  1  0.689043  0.180737  0.507395  1
  C  C10  1  0.689088  0.680751  0.007397  1
  C  C11  1  0.965021  0.429778  0.257996  1
  C  C12  1  0.964986  0.929780  0.758008  1
  C  C13  1  0.918659  0.498826  0.659973  1
  C  C14  1  0.918716  0.998838  0.159975  1
  C  C15  1  0.207120  0.747969  0.410675  1
  C  C16  1  0.207135  0.247985  0.910677  1
  C  C17  1  0.170861  0.373194  0.291124  1
  C  C18  1  0.170819  0.873186  0.791126  1
  C  C19  1  0.462243  0.125643  0.542342  1
  C  C20  1  0.462290  0.625663  0.042345  1
  C  C21  1  0.691675  0.444600  0.694395  1
  C  C22  1  0.691737  0.944616  0.194401  1
  C  C23  1  0.412050  0.690192  0.444514  1
  C  C24  1  0.412059  0.190199  0.944506  1
  C  C25  1  0.468891  0.260378  0.637292  1
  C  C26  1  0.468948  0.760398  0.137298  1
  C  C27  1  0.396298  0.507956  0.384931  1
  C  C28  1  0.396275  0.007948  0.884923  1
  H  H29  1  0.686906  0.544340  0.766119  1
  H  H30  1  0.686977  0.044357  0.266127  1
  H  H31  1  0.584302  0.787190  0.518586  1
  H  H32  1  0.584328  0.287196  0.018570  1
  H  H33  1  0.097174  0.883734  0.542320  1
  H  H34  1  0.097221  0.383765  0.042328  1
  H  H35  1  0.087415  0.993634  0.411222  1
  H  H36  1  0.087457  0.493665  0.911230  1
  H  H37  1  0.789156  0.331518  0.186543  1
  H  H38  1  0.789102  0.831518  0.686566  1
  H  H39  1  0.689034  0.082123  0.433185  1
  H  H40  1  0.689073  0.582135  0.933185  1
  H  H41  1  0.088231  0.401235  0.539141  1
  H  H42  1  0.088277  0.901241  0.039141  1
  H  H43  1  0.822688  0.654016  0.288429  1
  H  H44  1  0.822688  0.154039  0.788451  1
  H  H45  1  0.556858  0.467008  0.410717  1
  H  H46  1  0.556831  0.966993  0.910701  1
  H  H47  1  0.297213  0.223264  0.665930  1
  H  H48  1  0.297274  0.723288  0.165939  1
  O  O49  1  0.377889  0.685143  0.724396  1
  O  O50  1  0.377949  0.185160  0.224400  1
 
# Source:                            Mannodi-Kanakkithodi_etal:SciRep.inpress(2016)                                  
# Class:                             organic_polymer_crystal                                                         
# Label:                             CH2-C6H4-CO-C6H4                                                                
# Structure prediction method used:  minima-hopping                                                                  
# Number of atoms:                    50
# Number of atom types:                3
# Atom types:                         C  H  O
# Dielectric constant, electronic:   3.61695E+00
# Dielectric constant, ionic:        3.34408E-01
# Dielectric constant, total:        3.95135E+00
# Band gap at the GGA level (eV):    2.73210E+00
# Band gap at the HSE06 level (eV):  3.84510E+00
# Atomization energy (eV/atom):     -6.29085E+00
# Volume of the unit cell (A^3):     4.21043E+02
