# generated using pymatgen
data_H3C4O
_symmetry_space_group_name_H-M   'P 1'
_cell_length_a   3.59841963
_cell_length_b   5.47697649
_cell_length_c   7.20681881
_cell_angle_alpha   71.30902846
_cell_angle_beta   85.85951784
_cell_angle_gamma   81.75414930
_symmetry_Int_Tables_number   1
_chemical_formula_structural   H3C4O
_chemical_formula_sum   'H6 C8 O2'
_cell_volume   133.101343385
_cell_formula_units_Z   2
loop_
 _symmetry_equiv_pos_site_id
 _symmetry_equiv_pos_as_xyz
  1  'x, y, z'
loop_
 _atom_site_type_symbol
 _atom_site_label
 _atom_site_symmetry_multiplicity
 _atom_site_fract_x
 _atom_site_fract_y
 _atom_site_fract_z
 _atom_site_occupancy
  C  C1  1  0.785178  0.593408  0.984931  1
  C  C2  1  0.132407  0.201952  0.198907  1
  C  C3  1  0.846845  0.019562  0.733771  1
  C  C4  1  0.917977  0.168805  0.542065  1
  C  C5  1  0.961435  0.751465  0.796471  1
  C  C6  1  0.111400  0.052948  0.409473  1
  C  C7  1  0.169999  0.637801  0.665755  1
  C  C8  1  0.243698  0.785977  0.473533  1
  H  H9  1  0.257701  0.430563  0.713919  1
  H  H10  1  0.659401  0.439496  0.957795  1
  H  H11  1  0.571675  0.719032  0.037429  1
  H  H12  1  0.813102  0.372994  0.491637  1
  H  H13  1  0.684839  0.106369  0.833875  1
  H  H14  1  0.387090  0.696576  0.369542  1
  O  O15  1  0.017820  0.463014  0.162146  1
  O  O16  1  0.224084  0.105056  0.067103  1
 
# Source:                            Mannodi-Kanakkithodi_etal:SciRep.inpress(2016)                                  
# Class:                             organic_polymer_crystal                                                         
# Label:                             CH2-C6H4-CO-O                                                                   
# Structure prediction method used:  minima-hopping                                                                  
# Number of atoms:                    16
# Number of atom types:                3
# Atom types:                         C  H  O
# Dielectric constant, electronic:   3.39527E+00
# Dielectric constant, ionic:        6.81602E-01
# Dielectric constant, total:        4.07687E+00
# Band gap at the GGA level (eV):    2.81610E+00
# Band gap at the HSE06 level (eV):  3.79340E+00
# Atomization energy (eV/atom):     -6.22243E+00
# Volume of the unit cell (A^3):     1.33101E+02
