# generated using pymatgen
data_H10C14S
_symmetry_space_group_name_H-M   'P 1'
_cell_length_a   5.44317834
_cell_length_b   5.92200585
_cell_length_c   8.14425589
_cell_angle_alpha   84.98251403
_cell_angle_beta   85.91097661
_cell_angle_gamma   65.89425740
_symmetry_Int_Tables_number   1
_chemical_formula_structural   H10C14S
_chemical_formula_sum   'H10 C14 S1'
_cell_volume   238.531092255
_cell_formula_units_Z   1
loop_
 _symmetry_equiv_pos_site_id
 _symmetry_equiv_pos_as_xyz
  1  'x, y, z'
loop_
 _atom_site_type_symbol
 _atom_site_label
 _atom_site_symmetry_multiplicity
 _atom_site_fract_x
 _atom_site_fract_y
 _atom_site_fract_z
 _atom_site_occupancy
  C  C1  1  0.322728  0.168881  0.957188  1
  C  C2  1  0.105945  0.631162  0.457970  1
  C  C3  1  0.010743  0.103772  0.768834  1
  C  C4  1  0.729108  0.670097  0.280480  1
  C  C5  1  0.958510  0.983368  0.644697  1
  C  C6  1  0.545462  0.795094  0.158979  1
  C  C7  1  0.265777  0.017435  0.835574  1
  C  C8  1  0.900123  0.771288  0.335431  1
  C  C9  1  0.529923  0.023509  0.084310  1
  C  C10  1  0.161817  0.765685  0.584840  1
  C  C11  1  0.468373  0.799576  0.776711  1
  C  C12  1  0.881367  0.002250  0.262690  1
  C  C13  1  0.417232  0.676219  0.654677  1
  C  C14  1  0.701795  0.122805  0.137697  1
  H  H15  1  0.669225  0.729683  0.824255  1
  H  H16  1  0.011298  0.084436  0.301302  1
  H  H17  1  0.133206  0.282088  0.022062  1
  H  H18  1  0.387480  0.303564  0.886646  1
  H  H19  1  0.410695  0.715891  0.123105  1
  H  H20  1  0.759017  0.056965  0.595535  1
  H  H21  1  0.851791  0.271461  0.812346  1
  H  H22  1  0.737702  0.494630  0.336579  1
  H  H23  1  0.691704  0.299688  0.082440  1
  H  H24  1  0.576739  0.511277  0.608962  1
  S  S25  1  0.272019  0.326845  0.448031  1
 
# Source:                            Mannodi-Kanakkithodi_etal:SciRep.inpress(2016)                                  
# Class:                             organic_polymer_crystal                                                         
# Label:                             CH2-C6H4-CS-C6H4                                                                
# Structure prediction method used:  minima-hopping                                                                  
# Number of atoms:                    25
# Number of atom types:                3
# Atom types:                         C  H  S
# Dielectric constant, electronic:   3.87159E+00
# Dielectric constant, ionic:        2.25560E-01
# Dielectric constant, total:        4.09715E+00
# Band gap at the GGA level (eV):    1.37710E+00
# Band gap at the HSE06 level (eV):  2.30580E+00
# Atomization energy (eV/atom):     -6.16615E+00
# Volume of the unit cell (A^3):     2.38531E+02
