# generated using pymatgen
data_H6C8SO
_symmetry_space_group_name_H-M   'P 1'
_cell_length_a   6.03666638
_cell_length_b   6.74543210
_cell_length_c   9.14888834
_cell_angle_alpha   93.25237164
_cell_angle_beta   90.77513908
_cell_angle_gamma   116.94847990
_symmetry_Int_Tables_number   1
_chemical_formula_structural   H6C8SO
_chemical_formula_sum   'H12 C16 S2 O2'
_cell_volume   331.232014869
_cell_formula_units_Z   2
loop_
 _symmetry_equiv_pos_site_id
 _symmetry_equiv_pos_as_xyz
  1  'x, y, z'
loop_
 _atom_site_type_symbol
 _atom_site_label
 _atom_site_symmetry_multiplicity
 _atom_site_fract_x
 _atom_site_fract_y
 _atom_site_fract_z
 _atom_site_occupancy
  C  C1  1  0.462460  0.778307  0.034596  1
  C  C2  1  0.462461  0.778308  0.534596  1
  C  C3  1  0.267776  0.723929  0.932559  1
  C  C4  1  0.267778  0.723931  0.432559  1
  C  C5  1  0.620170  0.002842  0.080922  1
  C  C6  1  0.620171  0.002844  0.580921  1
  C  C7  1  0.221147  0.891551  0.874434  1
  C  C8  1  0.221148  0.891552  0.374434  1
  C  C9  1  0.810999  0.073653  0.206481  1
  C  C10  1  0.811000  0.073654  0.706481  1
  C  C11  1  0.577478  0.169441  0.020179  1
  C  C12  1  0.577478  0.169443  0.520179  1
  C  C13  1  0.379762  0.115360  0.919418  1
  C  C14  1  0.379762  0.115362  0.419419  1
  C  C15  1  0.996341  0.836162  0.782186  1
  C  C16  1  0.996341  0.836162  0.282186  1
  H  H17  1  0.697505  0.343285  0.052456  1
  H  H18  1  0.697506  0.343287  0.552457  1
  H  H19  1  0.718862  0.011923  0.307115  1
  H  H20  1  0.718863  0.011926  0.807115  1
  H  H21  1  0.912528  0.255356  0.218938  1
  H  H22  1  0.912532  0.255358  0.718938  1
  H  H23  1  0.148006  0.550472  0.897896  1
  H  H24  1  0.148008  0.550473  0.397896  1
  H  H25  1  0.493442  0.647680  0.079563  1
  H  H26  1  0.493444  0.647681  0.579562  1
  H  H27  1  0.344365  0.245325  0.876912  1
  H  H28  1  0.344365  0.245327  0.376913  1
  O  O29  1  0.016119  0.006781  0.199794  1
  O  O30  1  0.016119  0.006780  0.699793  1
  S  S31  1  0.741345  0.599093  0.789990  1
  S  S32  1  0.741345  0.599093  0.289989  1
 
# Source:                            Mannodi-Kanakkithodi_etal:SciRep.inpress(2016)                                  
# Class:                             organic_polymer_crystal                                                         
# Label:                             CH2-C6H4-CS-O                                                                   
# Structure prediction method used:  minima-hopping                                                                  
# Number of atoms:                    32
# Number of atom types:                4
# Atom types:                         C  H  O  S
# Dielectric constant, electronic:   3.58466E+00
# Dielectric constant, ionic:        4.03605E-01
# Dielectric constant, total:        3.98826E+00
# Band gap at the GGA level (eV):    2.00050E+00
# Band gap at the HSE06 level (eV):  3.14730E+00
# Atomization energy (eV/atom):     -6.00043E+00
# Volume of the unit cell (A^3):     3.31232E+02
