# generated using pymatgen
data_H7C8SN
_symmetry_space_group_name_H-M   'P 1'
_cell_length_a   5.67573974
_cell_length_b   6.24402970
_cell_length_c   10.59237559
_cell_angle_alpha   96.95701397
_cell_angle_beta   93.18300811
_cell_angle_gamma   60.09399429
_symmetry_Int_Tables_number   1
_chemical_formula_structural   H7C8SN
_chemical_formula_sum   'H14 C16 S2 N2'
_cell_volume   323.002327167
_cell_formula_units_Z   2
loop_
 _symmetry_equiv_pos_site_id
 _symmetry_equiv_pos_as_xyz
  1  'x, y, z'
loop_
 _atom_site_type_symbol
 _atom_site_label
 _atom_site_symmetry_multiplicity
 _atom_site_fract_x
 _atom_site_fract_y
 _atom_site_fract_z
 _atom_site_occupancy
  C  C1  1  0.170330  0.951557  0.768743  1
  C  C2  1  0.670330  0.951551  0.268747  1
  C  C3  1  0.289109  0.488330  0.948578  1
  C  C4  1  0.789126  0.488326  0.448576  1
  C  C5  1  0.371627  0.310604  0.035379  1
  C  C6  1  0.871643  0.310600  0.535377  1
  C  C7  1  0.427722  0.620343  0.938900  1
  C  C8  1  0.927736  0.620340  0.438894  1
  C  C9  1  0.597204  0.263430  0.113146  1
  C  C10  1  0.097220  0.263415  0.613146  1
  C  C11  1  0.425453  0.748685  0.825974  1
  C  C12  1  0.925463  0.748682  0.325972  1
  C  C13  1  0.635425  0.585396  0.026245  1
  C  C14  1  0.135435  0.585391  0.526243  1
  C  C15  1  0.720536  0.408825  0.111187  1
  C  C16  1  0.220547  0.408820  0.611185  1
  H  H17  1  0.742828  0.687398  0.022109  1
  H  H18  1  0.242840  0.687399  0.522111  1
  H  H19  1  0.532052  0.601700  0.747571  1
  H  H20  1  0.032054  0.601705  0.247565  1
  H  H21  1  0.560821  0.825618  0.849673  1
  H  H22  1  0.060828  0.825619  0.349666  1
  H  H23  1  0.273175  0.200057  0.035653  1
  H  H24  1  0.773183  0.200057  0.535651  1
  H  H25  1  0.126345  0.511935  0.882973  1
  H  H26  1  0.626359  0.511931  0.382971  1
  H  H27  1  0.893577  0.370825  0.172039  1
  H  H28  1  0.393587  0.370824  0.672042  1
  H  H29  1  0.948242  0.994143  0.182231  1
  H  H30  1  0.448251  0.994133  0.682233  1
  N  N31  1  0.744704  0.054591  0.184244  1
  N  N32  1  0.244710  0.054585  0.684245  1
  S  S33  1  0.353115  0.034502  0.304699  1
  S  S34  1  0.853111  0.034509  0.804697  1
 
# Source:                            Mannodi-Kanakkithodi_etal:SciRep.inpress(2016)                                  
# Class:                             organic_polymer_crystal                                                         
# Label:                             CH2-C6H4-NH-CS                                                                  
# Structure prediction method used:  minima-hopping                                                                  
# Number of atoms:                    34
# Number of atom types:                4
# Atom types:                         C  H  N  S
# Dielectric constant, electronic:   3.67128E+00
# Dielectric constant, ionic:        4.45827E-01
# Dielectric constant, total:        4.11711E+00
# Band gap at the GGA level (eV):    2.36360E+00
# Band gap at the HSE06 level (eV):  3.52650E+00
# Atomization energy (eV/atom):     -5.96691E+00
# Volume of the unit cell (A^3):     3.23002E+02
