# generated using pymatgen
data_H6C7
_symmetry_space_group_name_H-M   'P 1'
_cell_length_a   3.75538637
_cell_length_b   5.32165029
_cell_length_c   10.97144373
_cell_angle_alpha   76.64942876
_cell_angle_beta   80.73290247
_cell_angle_gamma   86.39008979
_symmetry_Int_Tables_number   1
_chemical_formula_structural   H6C7
_chemical_formula_sum   'H12 C14'
_cell_volume   210.476931795
_cell_formula_units_Z   2
loop_
 _symmetry_equiv_pos_site_id
 _symmetry_equiv_pos_as_xyz
  1  'x, y, z'
loop_
 _atom_site_type_symbol
 _atom_site_label
 _atom_site_symmetry_multiplicity
 _atom_site_fract_x
 _atom_site_fract_y
 _atom_site_fract_z
 _atom_site_occupancy
  C  C1  1  0.400168  0.875079  0.068261  1
  C  C2  1  0.327686  0.843606  0.353185  1
  C  C3  1  0.901348  0.748905  0.754789  1
  C  C4  1  0.189841  0.813119  0.481215  1
  C  C5  1  0.766816  0.720011  0.883035  1
  C  C6  1  0.263644  0.071785  0.264938  1
  C  C7  1  0.835845  0.976731  0.665411  1
  C  C8  1  0.557194  0.915159  0.929058  1
  C  C9  1  0.982399  0.009595  0.528439  1
  C  C10  1  0.421890  0.111973  0.125825  1
  C  C11  1  0.054789  0.267235  0.310971  1
  C  C12  1  0.627130  0.172771  0.712589  1
  C  C13  1  0.919084  0.238066  0.439148  1
  C  C14  1  0.490706  0.142622  0.840717  1
  H  H15  1  0.997471  0.446302  0.245269  1
  H  H16  1  0.569338  0.353444  0.648926  1
  H  H17  1  0.706025  0.163461  0.113062  1
  H  H18  1  0.116089  0.823243  0.081339  1
  H  H19  1  0.537864  0.707847  0.121622  1
  H  H20  1  0.284930  0.279399  0.072306  1
  H  H21  1  0.825964  0.541522  0.948829  1
  H  H22  1  0.245210  0.631688  0.544731  1
  H  H23  1  0.488082  0.686734  0.322462  1
  H  H24  1  0.061304  0.591255  0.725278  1
  H  H25  1  0.329168  0.299027  0.871458  1
  H  H26  1  0.760493  0.396231  0.468690  1
 
# Source:                            Mannodi-Kanakkithodi_etal:SciRep.inpress(2016)                                  
# Class:                             organic_polymer_crystal                                                         
# Label:                             CH2-CH2-C6H4-C6H4                                                               
# Structure prediction method used:  minima-hopping                                                                  
# Number of atoms:                    26
# Number of atom types:                2
# Atom types:                         C  H
# Dielectric constant, electronic:   3.50466E+00
# Dielectric constant, ionic:        7.43150E-02
# Dielectric constant, total:        3.57898E+00
# Band gap at the GGA level (eV):    2.89580E+00
# Band gap at the HSE06 level (eV):  3.74920E+00
# Atomization energy (eV/atom):     -6.09102E+00
# Volume of the unit cell (A^3):     2.10477E+02
