# generated using pymatgen
data_H6C4O
_symmetry_space_group_name_H-M   'P 1'
_cell_length_a   4.98501271
_cell_length_b   5.09874386
_cell_length_c   6.41615811
_cell_angle_alpha   90.01294417
_cell_angle_beta   100.50268644
_cell_angle_gamma   90.00485505
_symmetry_Int_Tables_number   1
_chemical_formula_structural   H6C4O
_chemical_formula_sum   'H12 C8 O2'
_cell_volume   160.349221768
_cell_formula_units_Z   2
loop_
 _symmetry_equiv_pos_site_id
 _symmetry_equiv_pos_as_xyz
  1  'x, y, z'
loop_
 _atom_site_type_symbol
 _atom_site_label
 _atom_site_symmetry_multiplicity
 _atom_site_fract_x
 _atom_site_fract_y
 _atom_site_fract_z
 _atom_site_occupancy
  C  C1  1  0.284795  0.099131  0.215201  1
  C  C2  1  0.284851  0.594170  0.215299  1
  C  C3  1  0.125954  0.346646  0.249807  1
  C  C4  1  0.784751  0.098819  0.715248  1
  C  C5  1  0.784771  0.593859  0.715314  1
  C  C6  1  0.625880  0.346331  0.749813  1
  C  C7  1  0.630590  0.846328  0.731786  1
  C  C8  1  0.130682  0.846645  0.231823  1
  H  H9  1  0.927144  0.346643  0.145034  1
  H  H10  1  0.481655  0.089449  0.322844  1
  H  H11  1  0.481604  0.603966  0.323070  1
  H  H12  1  0.339665  0.097641  0.057019  1
  H  H13  1  0.339923  0.595577  0.057193  1
  H  H14  1  0.083263  0.346645  0.410910  1
  H  H15  1  0.427085  0.346305  0.645019  1
  H  H16  1  0.981536  0.089104  0.822973  1
  H  H17  1  0.981505  0.603662  0.823113  1
  H  H18  1  0.839750  0.097349  0.557115  1
  H  H19  1  0.839898  0.595246  0.557220  1
  H  H20  1  0.583154  0.346351  0.910906  1
  O  O21  1  0.386611  0.846320  0.747302  1
  O  O22  1  0.886733  0.846622  0.247429  1
 
# Source:                            Mannodi-Kanakkithodi_etal:SciRep.inpress(2016)                                  
# Class:                             organic_polymer_crystal                                                         
# Label:                             CH2-CH2-CH2-CO                                                                  
# Structure prediction method used:  minima-hopping                                                                  
# Number of atoms:                    22
# Number of atom types:                3
# Atom types:                         C  H  O
# Dielectric constant, electronic:   2.73987E+00
# Dielectric constant, ionic:        4.21530E-01
# Dielectric constant, total:        3.16140E+00
# Band gap at the GGA level (eV):    3.28840E+00
# Band gap at the HSE06 level (eV):  5.13000E+00
# Atomization energy (eV/atom):     -5.52031E+00
# Volume of the unit cell (A^3):     1.60349E+02
