# generated using pymatgen
data_H6C4S
_symmetry_space_group_name_H-M   'P 1'
_cell_length_a   5.13631135
_cell_length_b   5.82532373
_cell_length_c   6.96980386
_cell_angle_alpha   104.06205722
_cell_angle_beta   89.99986171
_cell_angle_gamma   90.08772757
_symmetry_Int_Tables_number   1
_chemical_formula_structural   H6C4S
_chemical_formula_sum   'H12 C8 S2'
_cell_volume   202.29166594
_cell_formula_units_Z   2
loop_
 _symmetry_equiv_pos_site_id
 _symmetry_equiv_pos_as_xyz
  1  'x, y, z'
loop_
 _atom_site_type_symbol
 _atom_site_label
 _atom_site_symmetry_multiplicity
 _atom_site_fract_x
 _atom_site_fract_y
 _atom_site_fract_z
 _atom_site_occupancy
  C  C1  1  0.902989  0.725257  0.781504  1
  C  C2  1  0.403622  0.725256  0.781431  1
  C  C3  1  0.653544  0.858697  0.756401  1
  C  C4  1  0.903164  0.225363  0.281470  1
  C  C5  1  0.403800  0.225363  0.281415  1
  C  C6  1  0.653716  0.358793  0.256377  1
  C  C7  1  0.153709  0.361765  0.274453  1
  C  C8  1  0.153536  0.861667  0.774462  1
  H  H9  1  0.653830  0.030632  0.862799  1
  H  H10  1  0.914975  0.556148  0.670006  1
  H  H11  1  0.391039  0.556238  0.669835  1
  H  H12  1  0.900789  0.674341  0.924107  1
  H  H13  1  0.405645  0.674194  0.923970  1
  H  H14  1  0.653648  0.898118  0.610228  1
  H  H15  1  0.654008  0.530737  0.362793  1
  H  H16  1  0.915163  0.056272  0.169938  1
  H  H17  1  0.391206  0.056351  0.169799  1
  H  H18  1  0.900952  0.174383  0.424045  1
  H  H19  1  0.405830  0.174273  0.423940  1
  H  H20  1  0.653813  0.398235  0.110220  1
  S  S21  1  0.154192  0.643118  0.269711  1
  S  S22  1  0.154020  0.142997  0.769656  1
 
# Source:                            Mannodi-Kanakkithodi_etal:SciRep.inpress(2016)                                  
# Class:                             organic_polymer_crystal                                                         
# Label:                             CH2-CH2-CH2-CS                                                                  
# Structure prediction method used:  minima-hopping                                                                  
# Number of atoms:                    22
# Number of atom types:                3
# Atom types:                         C  H  S
# Dielectric constant, electronic:   3.13343E+00
# Dielectric constant, ionic:        1.66530E-01
# Dielectric constant, total:        3.29996E+00
# Band gap at the GGA level (eV):    1.66170E+00
# Band gap at the HSE06 level (eV):  2.94640E+00
# Atomization energy (eV/atom):     -5.22264E+00
# Volume of the unit cell (A^3):     2.02292E+02
