# generated using pymatgen
data_H7C3N
_symmetry_space_group_name_H-M   'P 1'
_cell_length_a   4.47579832
_cell_length_b   4.97261954
_cell_length_c   6.59454965
_cell_angle_alpha   90.01617507
_cell_angle_beta   96.65154929
_cell_angle_gamma   90.01843292
_symmetry_Int_Tables_number   1
_chemical_formula_structural   H7C3N
_chemical_formula_sum   'H14 C6 N2'
_cell_volume   145.783274079
_cell_formula_units_Z   2
loop_
 _symmetry_equiv_pos_site_id
 _symmetry_equiv_pos_as_xyz
  1  'x, y, z'
loop_
 _atom_site_type_symbol
 _atom_site_label
 _atom_site_symmetry_multiplicity
 _atom_site_fract_x
 _atom_site_fract_y
 _atom_site_fract_z
 _atom_site_occupancy
  C  C1  1  0.270118  0.090792  0.192900  1
  C  C2  1  0.270150  0.602062  0.192918  1
  C  C3  1  0.168346  0.346431  0.294058  1
  C  C4  1  0.770136  0.090932  0.692907  1
  C  C5  1  0.770142  0.602193  0.692910  1
  C  C6  1  0.668349  0.346567  0.794058  1
  H  H7  1  0.922230  0.346376  0.287112  1
  H  H8  1  0.515730  0.089662  0.196263  1
  H  H9  1  0.515771  0.603326  0.196312  1
  H  H10  1  0.178365  0.086931  0.030621  1
  H  H11  1  0.178463  0.605740  0.030622  1
  H  H12  1  0.255179  0.346518  0.455754  1
  H  H13  1  0.956426  0.846367  0.299424  1
  H  H14  1  0.422235  0.346505  0.787111  1
  H  H15  1  0.015751  0.089803  0.696287  1
  H  H16  1  0.015760  0.603464  0.696286  1
  H  H17  1  0.678409  0.087066  0.530623  1
  H  H18  1  0.678425  0.605879  0.530620  1
  H  H19  1  0.755181  0.346662  0.955753  1
  H  H20  1  0.456434  0.846510  0.799428  1
  N  N21  1  0.685105  0.846578  0.799736  1
  N  N22  1  0.185096  0.846444  0.299736  1
 
# Source:                            Mannodi-Kanakkithodi_etal:SciRep.inpress(2016)                                  
# Class:                             organic_polymer_crystal                                                         
# Label:                             CH2-CH2-CH2-NH                                                                  
# Structure prediction method used:  minima-hopping                                                                  
# Number of atoms:                    22
# Number of atom types:                3
# Atom types:                         C  H  N
# Dielectric constant, electronic:   2.81414E+00
# Dielectric constant, ionic:        2.02164E-01
# Dielectric constant, total:        3.01630E+00
# Band gap at the GGA level (eV):    4.78240E+00
# Band gap at the HSE06 level (eV):  6.38100E+00
# Atomization energy (eV/atom):     -5.18322E+00
# Volume of the unit cell (A^3):     1.45783E+02
