# generated using pymatgen
data_H6C3O
_symmetry_space_group_name_H-M   'P 1'
_cell_length_a   4.37221584
_cell_length_b   4.39155616
_cell_length_c   8.01484563
_cell_angle_alpha   95.80121426
_cell_angle_beta   103.59668589
_cell_angle_gamma   112.60663895
_symmetry_Int_Tables_number   1
_chemical_formula_structural   H6C3O
_chemical_formula_sum   'H12 C6 O2'
_cell_volume   134.90647318
_cell_formula_units_Z   2
loop_
 _symmetry_equiv_pos_site_id
 _symmetry_equiv_pos_as_xyz
  1  'x, y, z'
loop_
 _atom_site_type_symbol
 _atom_site_label
 _atom_site_symmetry_multiplicity
 _atom_site_fract_x
 _atom_site_fract_y
 _atom_site_fract_z
 _atom_site_occupancy
  C  C1  1  0.888724  0.094617  0.311527  1
  C  C2  1  0.400580  0.606880  0.311699  1
  C  C3  1  0.041927  0.344529  0.203090  1
  C  C4  1  0.388771  0.093444  0.811475  1
  C  C5  1  0.900653  0.605778  0.811647  1
  C  C6  1  0.541969  0.343441  0.703073  1
  H  H7  1  0.062548  0.209714  0.087198  1
  H  H8  1  0.873944  0.225015  0.431574  1
  H  H9  1  0.388431  0.740567  0.431575  1
  H  H10  1  0.051579  0.962781  0.352808  1
  H  H11  1  0.575996  0.487822  0.353401  1
  H  H12  1  0.872129  0.467995  0.158862  1
  H  H13  1  0.562590  0.208656  0.587178  1
  H  H14  1  0.373795  0.223687  0.931519  1
  H  H15  1  0.888649  0.739649  0.931508  1
  H  H16  1  0.551693  0.961695  0.852801  1
  H  H17  1  0.076000  0.486640  0.853362  1
  H  H18  1  0.372161  0.466890  0.658843  1
  O  O19  1  0.543077  0.848618  0.208482  1
  O  O20  1  0.043205  0.847362  0.708374  1
 
# Source:                            Mannodi-Kanakkithodi_etal:SciRep.inpress(2016)                                  
# Class:                             organic_polymer_crystal                                                         
# Label:                             CH2-CH2-CH2-O                                                                   
# Structure prediction method used:  minima-hopping                                                                  
# Number of atoms:                    20
# Number of atom types:                3
# Atom types:                         C  H  O
# Dielectric constant, electronic:   2.71526E+00
# Dielectric constant, ionic:        2.65393E-01
# Dielectric constant, total:        2.98065E+00
# Band gap at the GGA level (eV):    5.68240E+00
# Band gap at the HSE06 level (eV):  7.48890E+00
# Atomization energy (eV/atom):     -5.19589E+00
# Volume of the unit cell (A^3):     1.34906E+02
