# generated using pymatgen
data_H9C8N
_symmetry_space_group_name_H-M   'P 1'
_cell_length_a   4.99877734
_cell_length_b   7.23194753
_cell_length_c   8.81023427
_cell_angle_alpha   105.71794280
_cell_angle_beta   99.76151837
_cell_angle_gamma   98.51642905
_symmetry_Int_Tables_number   1
_chemical_formula_structural   H9C8N
_chemical_formula_sum   'H18 C16 N2'
_cell_volume   295.762634014
_cell_formula_units_Z   2
loop_
 _symmetry_equiv_pos_site_id
 _symmetry_equiv_pos_as_xyz
  1  'x, y, z'
loop_
 _atom_site_type_symbol
 _atom_site_label
 _atom_site_symmetry_multiplicity
 _atom_site_fract_x
 _atom_site_fract_y
 _atom_site_fract_z
 _atom_site_occupancy
  C  C1  1  0.187620  0.936612  0.227945  1
  C  C2  1  0.187530  0.936601  0.727906  1
  C  C3  1  0.184633  0.431764  0.529335  1
  C  C4  1  0.184660  0.431761  0.029325  1
  C  C5  1  0.263834  0.258189  0.453361  1
  C  C6  1  0.263820  0.258175  0.953340  1
  C  C7  1  0.935325  0.475221  0.460868  1
  C  C8  1  0.935351  0.475239  0.960880  1
  C  C9  1  0.107933  0.127795  0.306695  1
  C  C10  1  0.107878  0.127787  0.806682  1
  C  C11  1  0.953404  0.755679  0.203937  1
  C  C12  1  0.953311  0.755671  0.703906  1
  C  C13  1  0.780866  0.345985  0.310354  1
  C  C14  1  0.780850  0.346008  0.810374  1
  C  C15  1  0.865765  0.176963  0.235372  1
  C  C16  1  0.865709  0.176975  0.735382  1
  H  H17  1  0.591075  0.380011  0.255906  1
  H  H18  1  0.591056  0.380048  0.755944  1
  H  H19  1  0.031730  0.661744  0.771458  1
  H  H20  1  0.031832  0.661731  0.271465  1
  H  H21  1  0.229442  0.933931  0.108825  1
  H  H22  1  0.229309  0.933931  0.608779  1
  H  H23  1  0.628936  0.625919  0.497710  1
  H  H24  1  0.629007  0.625976  0.997743  1
  H  H25  1  0.380415  0.924580  0.302123  1
  H  H26  1  0.380339  0.924554  0.802059  1
  H  H27  1  0.782572  0.805624  0.754872  1
  H  H28  1  0.782679  0.805623  0.254924  1
  H  H29  1  0.452799  0.224169  0.508969  1
  H  H30  1  0.452786  0.224139  0.008932  1
  H  H31  1  0.308649  0.526708  0.145155  1
  H  H32  1  0.308589  0.526714  0.645173  1
  H  H33  1  0.742810  0.080196  0.119366  1
  H  H34  1  0.742719  0.080209  0.619383  1
  N  N35  1  0.836769  0.640190  0.034150  1
  N  N36  1  0.836700  0.640158  0.534123  1
 
# Source:                            Mannodi-Kanakkithodi_etal:SciRep.inpress(2016)                                  
# Class:                             organic_polymer_crystal                                                         
# Label:                             CH2-CH2-NH-C6H4                                                                 
# Structure prediction method used:  minima-hopping                                                                  
# Number of atoms:                    36
# Number of atom types:                3
# Atom types:                         C  H  N
# Dielectric constant, electronic:   3.17414E+00
# Dielectric constant, ionic:        3.63057E-01
# Dielectric constant, total:        3.53720E+00
# Band gap at the GGA level (eV):    2.69680E+00
# Band gap at the HSE06 level (eV):  3.68900E+00
# Atomization energy (eV/atom):     -5.84658E+00
# Volume of the unit cell (A^3):     2.95763E+02
