# generated using pymatgen
data_H10C14O
_symmetry_space_group_name_H-M   'P 1'
_cell_length_a   3.62387775
_cell_length_b   5.34927888
_cell_length_c   10.93336107
_cell_angle_alpha   85.81788112
_cell_angle_beta   83.19705576
_cell_angle_gamma   87.57252181
_symmetry_Int_Tables_number   1
_chemical_formula_structural   H10C14O
_chemical_formula_sum   'H10 C14 O1'
_cell_volume   209.770386695
_cell_formula_units_Z   1
loop_
 _symmetry_equiv_pos_site_id
 _symmetry_equiv_pos_as_xyz
  1  'x, y, z'
loop_
 _atom_site_type_symbol
 _atom_site_label
 _atom_site_symmetry_multiplicity
 _atom_site_fract_x
 _atom_site_fract_y
 _atom_site_fract_z
 _atom_site_occupancy
  C  C1  1  0.486086  0.313694  0.058455  1
  C  C2  1  0.256182  0.693848  0.347083  1
  C  C3  1  0.584399  0.603507  0.727763  1
  C  C4  1  0.282890  0.668905  0.472917  1
  C  C5  1  0.596144  0.572571  0.854703  1
  C  C6  1  0.386772  0.500495  0.270918  1
  C  C7  1  0.445277  0.416573  0.663543  1
  C  C8  1  0.459785  0.355796  0.921844  1
  C  C9  1  0.433361  0.447858  0.528453  1
  C  C10  1  0.548809  0.282258  0.325271  1
  C  C11  1  0.311610  0.199445  0.731154  1
  C  C12  1  0.567516  0.255996  0.451923  1
  C  C13  1  0.314089  0.171059  0.858790  1
  C  C14  1  0.335191  0.528548  0.137651  1
  H  H15  1  0.656979  0.130628  0.269314  1
  H  H16  1  0.189381  0.056971  0.684640  1
  H  H17  1  0.344495  0.141886  0.095365  1
  H  H18  1  0.776770  0.275785  0.073850  1
  H  H19  1  0.718853  0.714105  0.901711  1
  H  H20  1  0.176665  0.818557  0.530311  1
  H  H21  1  0.127185  0.860584  0.305941  1
  H  H22  1  0.693979  0.771203  0.677299  1
  H  H23  1  0.202572  0.004479  0.910084  1
  H  H24  1  0.693734  0.087060  0.492139  1
  O  O25  1  0.162767  0.714016  0.094602  1
 
# Source:                            Mannodi-Kanakkithodi_etal:SciRep.inpress(2016)                                  
# Class:                             organic_polymer_crystal                                                         
# Label:                             CH2-CO-C6H4-C6H4                                                                
# Structure prediction method used:  minima-hopping                                                                  
# Number of atoms:                    25
# Number of atom types:                3
# Atom types:                         C  H  O
# Dielectric constant, electronic:   3.62727E+00
# Dielectric constant, ionic:        4.44550E-01
# Dielectric constant, total:        4.07182E+00
# Band gap at the GGA level (eV):    2.15290E+00
# Band gap at the HSE06 level (eV):  3.06490E+00
# Atomization energy (eV/atom):     -6.29232E+00
# Volume of the unit cell (A^3):     2.09770E+02
