# generated using pymatgen
data_H6C9O2
_symmetry_space_group_name_H-M   'P 1'
_cell_length_a   4.61497379
_cell_length_b   4.90299447
_cell_length_c   13.54095959
_cell_angle_alpha   83.67893254
_cell_angle_beta   89.75943116
_cell_angle_gamma   83.63232199
_symmetry_Int_Tables_number   1
_chemical_formula_structural   H6C9O2
_chemical_formula_sum   'H12 C18 O4'
_cell_volume   302.642450866
_cell_formula_units_Z   2
loop_
 _symmetry_equiv_pos_site_id
 _symmetry_equiv_pos_as_xyz
  1  'x, y, z'
loop_
 _atom_site_type_symbol
 _atom_site_label
 _atom_site_symmetry_multiplicity
 _atom_site_fract_x
 _atom_site_fract_y
 _atom_site_fract_z
 _atom_site_occupancy
  C  C1  1  0.093385  0.598415  0.759025  1
  C  C2  1  0.593339  0.098455  0.259023  1
  C  C3  1  0.182053  0.684617  0.942309  1
  C  C4  1  0.681994  0.184672  0.442312  1
  C  C5  1  0.825091  0.349940  0.002610  1
  C  C6  1  0.325045  0.849972  0.502610  1
  C  C7  1  0.671219  0.222739  0.079696  1
  C  C8  1  0.171199  0.722749  0.579697  1
  C  C9  1  0.002342  0.554344  0.021242  1
  C  C10  1  0.502300  0.054369  0.521245  1
  C  C11  1  0.715098  0.279137  0.177661  1
  C  C12  1  0.215105  0.779107  0.677662  1
  C  C13  1  0.273615  0.525977  0.854404  1
  C  C14  1  0.773579  0.026042  0.354406  1
  C  C15  1  0.029669  0.624801  0.118552  1
  C  C16  1  0.529662  0.124794  0.618557  1
  C  C17  1  0.897050  0.479751  0.196770  1
  C  C18  1  0.397067  0.979712  0.696776  1
  H  H19  1  0.168136  0.780276  0.132783  1
  H  H20  1  0.668129  0.280261  0.632791  1
  H  H21  1  0.266962  0.306301  0.875803  1
  H  H22  1  0.766945  0.806360  0.375803  1
  H  H23  1  0.496947  0.563727  0.838073  1
  H  H24  1  0.996907  0.063811  0.338078  1
  H  H25  1  0.530758  0.068953  0.065347  1
  H  H26  1  0.030729  0.568965  0.565344  1
  H  H27  1  0.809921  0.288323  0.928666  1
  H  H28  1  0.309859  0.788381  0.428663  1
  H  H29  1  0.938373  0.518006  0.272509  1
  H  H30  1  0.438416  0.017939  0.772515  1
  O  O31  1  0.870256  0.486062  0.747351  1
  O  O32  1  0.370241  0.986120  0.247352  1
  O  O33  1  0.278877  0.907312  0.950353  1
  O  O34  1  0.778789  0.407372  0.450356  1
 
# Source:                            Mannodi-Kanakkithodi_etal:SciRep.inpress(2016)                                  
# Class:                             organic_polymer_crystal                                                         
# Label:                             CH2-CO-C6H4-CO                                                                  
# Structure prediction method used:  minima-hopping                                                                  
# Number of atoms:                    34
# Number of atom types:                3
# Atom types:                         C  H  O
# Dielectric constant, electronic:   3.53349E+00
# Dielectric constant, ionic:        7.32381E-01
# Dielectric constant, total:        4.26587E+00
# Band gap at the GGA level (eV):    2.05790E+00
# Band gap at the HSE06 level (eV):  2.91720E+00
# Atomization energy (eV/atom):     -6.33584E+00
# Volume of the unit cell (A^3):     3.02642E+02
