# generated using pymatgen
data_H6C9SO
_symmetry_space_group_name_H-M   'P 1'
_cell_length_a   3.92044938
_cell_length_b   6.12591437
_cell_length_c   7.14362811
_cell_angle_alpha   82.06201172
_cell_angle_beta   80.53011414
_cell_angle_gamma   78.60955299
_symmetry_Int_Tables_number   1
_chemical_formula_structural   H6C9SO
_chemical_formula_sum   'H6 C9 S1 O1'
_cell_volume   164.900297343
_cell_formula_units_Z   1
loop_
 _symmetry_equiv_pos_site_id
 _symmetry_equiv_pos_as_xyz
  1  'x, y, z'
loop_
 _atom_site_type_symbol
 _atom_site_label
 _atom_site_symmetry_multiplicity
 _atom_site_fract_x
 _atom_site_fract_y
 _atom_site_fract_z
 _atom_site_occupancy
  C  C1  1  0.690565  0.011302  0.983274  1
  C  C2  1  0.972272  0.812766  0.603189  1
  C  C3  1  0.183654  0.749436  0.436807  1
  C  C4  1  0.809702  0.038380  0.614077  1
  C  C5  1  0.262296  0.910513  0.282180  1
  C  C6  1  0.576652  0.114229  0.788758  1
  C  C7  1  0.488050  0.842629  0.106247  1
  C  C8  1  0.879826  0.199413  0.459685  1
  C  C9  1  0.112419  0.137968  0.298921  1
  H  H10  1  0.763686  0.373746  0.470410  1
  H  H11  1  0.687430  0.153516  0.060016  1
  H  H12  1  0.961290  0.925455  0.955474  1
  H  H13  1  0.295721  0.574533  0.427327  1
  H  H14  1  0.927574  0.686259  0.722061  1
  H  H15  1  0.168550  0.266826  0.184582  1
  O  O16  1  0.319783  0.266805  0.779446  1
  S  S17  1  0.533172  0.589091  0.039863  1
 
# Source:                            Mannodi-Kanakkithodi_etal:SciRep.inpress(2016)                                  
# Class:                             organic_polymer_crystal                                                         
# Label:                             CH2-CO-C6H4-CS                                                                  
# Structure prediction method used:  minima-hopping                                                                  
# Number of atoms:                    17
# Number of atom types:                4
# Atom types:                         C  H  O  S
# Dielectric constant, electronic:   4.12007E+00
# Dielectric constant, ionic:        8.77059E+00
# Dielectric constant, total:        1.28907E+01
# Band gap at the GGA level (eV):    1.31510E+00
# Band gap at the HSE06 level (eV):  2.46690E+00
# Atomization energy (eV/atom):     -6.14702E+00
# Volume of the unit cell (A^3):     1.64900E+02
