# generated using pymatgen
data_H3C4O
_symmetry_space_group_name_H-M   'P 1'
_cell_length_a   3.67666718
_cell_length_b   6.82818431
_cell_length_c   11.20154682
_cell_angle_alpha   103.63134807
_cell_angle_beta   90.95277236
_cell_angle_gamma   90.49164936
_symmetry_Int_Tables_number   1
_chemical_formula_structural   H3C4O
_chemical_formula_sum   'H12 C16 O4'
_cell_volume   273.232812993
_cell_formula_units_Z   4
loop_
 _symmetry_equiv_pos_site_id
 _symmetry_equiv_pos_as_xyz
  1  'x, y, z'
loop_
 _atom_site_type_symbol
 _atom_site_label
 _atom_site_symmetry_multiplicity
 _atom_site_fract_x
 _atom_site_fract_y
 _atom_site_fract_z
 _atom_site_occupancy
  C  C1  1  0.147182  0.337948  0.033703  1
  C  C2  1  0.647772  0.838023  0.533743  1
  C  C3  1  0.863717  0.667710  0.019292  1
  C  C4  1  0.364466  0.167812  0.519273  1
  C  C5  1  0.718778  0.791338  0.949029  1
  C  C6  1  0.219084  0.291271  0.448972  1
  C  C7  1  0.005731  0.478087  0.962759  1
  C  C8  1  0.506066  0.978068  0.462773  1
  C  C9  1  0.727162  0.729752  0.821107  1
  C  C10  1  0.226644  0.229387  0.321053  1
  C  C11  1  0.286866  0.423894  0.165261  1
  C  C12  1  0.787916  0.924070  0.665234  1
  C  C13  1  0.011863  0.419772  0.833649  1
  C  C14  1  0.511447  0.919477  0.333661  1
  C  C15  1  0.876571  0.544495  0.762092  1
  C  C16  1  0.375733  0.044031  0.262068  1
  H  H17  1  0.133163  0.276373  0.792906  1
  H  H18  1  0.632431  0.775975  0.292949  1
  H  H19  1  0.280509  0.587350  0.190500  1
  H  H20  1  0.781991  0.087536  0.690359  1
  H  H21  1  0.564923  0.374451  0.172652  1
  H  H22  1  0.065856  0.874432  0.672588  1
  H  H23  1  0.603985  0.936236  0.989392  1
  H  H24  1  0.104543  0.436246  0.489304  1
  H  H25  1  0.864309  0.719191  0.118381  1
  H  H26  1  0.365687  0.219518  0.618355  1
  H  H27  1  0.880504  0.502205  0.662656  1
  H  H28  1  0.379069  0.001554  0.162627  1
  O  O29  1  0.067749  0.357821  0.256564  1
  O  O30  1  0.568801  0.858429  0.756690  1
  O  O31  1  0.166747  0.153996  0.988869  1
  O  O32  1  0.667076  0.654033  0.488975  1
 
# Source:                            Mannodi-Kanakkithodi_etal:SciRep.inpress(2016)                                  
# Class:                             organic_polymer_crystal                                                         
# Label:                             CH2-CO-C6H4-O                                                                   
# Structure prediction method used:  minima-hopping                                                                  
# Number of atoms:                    32
# Number of atom types:                3
# Atom types:                         C  H  O
# Dielectric constant, electronic:   3.47470E+00
# Dielectric constant, ionic:        6.81227E-01
# Dielectric constant, total:        4.15593E+00
# Band gap at the GGA level (eV):    2.63910E+00
# Band gap at the HSE06 level (eV):  3.88930E+00
# Atomization energy (eV/atom):     -6.17957E+00
# Volume of the unit cell (A^3):     2.73233E+02
