# generated using pymatgen
data_H2C2O
_symmetry_space_group_name_H-M   'P 1'
_cell_length_a   4.78572527
_cell_length_b   4.83685678
_cell_length_c   6.58916163
_cell_angle_alpha   90.10144071
_cell_angle_beta   89.99984201
_cell_angle_gamma   90.00132427
_symmetry_Int_Tables_number   1
_chemical_formula_structural   H2C2O
_chemical_formula_sum   'H8 C8 O4'
_cell_volume   152.524802636
_cell_formula_units_Z   4
loop_
 _symmetry_equiv_pos_site_id
 _symmetry_equiv_pos_as_xyz
  1  'x, y, z'
loop_
 _atom_site_type_symbol
 _atom_site_label
 _atom_site_symmetry_multiplicity
 _atom_site_fract_x
 _atom_site_fract_y
 _atom_site_fract_z
 _atom_site_occupancy
  C  C1  1  0.944947  0.097348  0.056218  1
  C  C2  1  0.095193  0.370124  0.041141  1
  C  C3  1  0.444653  0.386968  0.555771  1
  C  C4  1  0.944652  0.597030  0.924115  1
  C  C5  1  0.444951  0.886648  0.423671  1
  C  C6  1  0.595206  0.613880  0.438748  1
  C  C7  1  0.594972  0.114114  0.541124  1
  C  C8  1  0.094964  0.869892  0.938765  1
  H  H9  1  0.727981  0.108326  0.006363  1
  H  H10  1  0.944743  0.028962  0.214717  1
  H  H11  1  0.227950  0.375740  0.505329  1
  H  H12  1  0.443598  0.456246  0.714238  1
  H  H13  1  0.943599  0.527750  0.765649  1
  H  H14  1  0.727947  0.608247  0.974556  1
  H  H15  1  0.444748  0.955031  0.265171  1
  H  H16  1  0.227984  0.875659  0.473523  1
  O  O17  1  0.832901  0.586724  0.370097  1
  O  O18  1  0.332895  0.397296  0.109798  1
  O  O19  1  0.832330  0.087223  0.610372  1
  O  O20  1  0.332334  0.896798  0.869520  1
 
# Source:                            Mannodi-Kanakkithodi_etal:SciRep.inpress(2016)                                  
# Class:                             organic_polymer_crystal                                                         
# Label:                             CH2-CO-CH2-CO                                                                   
# Structure prediction method used:  minima-hopping                                                                  
# Number of atoms:                    20
# Number of atom types:                3
# Atom types:                         C  H  O
# Dielectric constant, electronic:   3.08547E+00
# Dielectric constant, ionic:        7.74882E-01
# Dielectric constant, total:        3.86035E+00
# Band gap at the GGA level (eV):    2.89580E+00
# Band gap at the HSE06 level (eV):  4.69590E+00
# Atomization energy (eV/atom):     -5.94993E+00
# Volume of the unit cell (A^3):     1.52525E+02
