# generated using pymatgen
data_H4C7S2O
_symmetry_space_group_name_H-M   'P 1'
_cell_length_a   5.32159161
_cell_length_b   5.42463147
_cell_length_c   6.45709172
_cell_angle_alpha   93.71900409
_cell_angle_beta   102.66470624
_cell_angle_gamma   111.60957209
_symmetry_Int_Tables_number   1
_chemical_formula_structural   H4C7S2O
_chemical_formula_sum   'H4 C7 S2 O1'
_cell_volume   166.890995055
_cell_formula_units_Z   1
loop_
 _symmetry_equiv_pos_site_id
 _symmetry_equiv_pos_as_xyz
  1  'x, y, z'
loop_
 _atom_site_type_symbol
 _atom_site_label
 _atom_site_symmetry_multiplicity
 _atom_site_fract_x
 _atom_site_fract_y
 _atom_site_fract_z
 _atom_site_occupancy
  C  C1  1  0.785644  0.685147  0.684520  1
  C  C2  1  0.647510  0.707015  0.479141  1
  C  C3  1  0.413523  0.475303  0.379738  1
  C  C4  1  0.653525  0.436121  0.746820  1
  C  C5  1  0.003112  0.516018  0.104586  1
  C  C6  1  0.237709  0.412475  0.152342  1
  C  C7  1  0.740185  0.335925  0.934616  1
  H  H8  1  0.150403  0.196966  0.095616  1
  H  H9  1  0.979141  0.838389  0.783142  1
  H  H10  1  0.719550  0.879458  0.399752  1
  H  H11  1  0.372390  0.509364  0.049287  1
  O  O12  1  0.021761  0.731746  0.193164  1
  S  S13  1  0.353532  0.230213  0.543935  1
  S  S14  1  0.572196  0.037580  0.998857  1
 
# Source:                            Mannodi-Kanakkithodi_etal:SciRep.inpress(2016)                                  
# Class:                             organic_polymer_crystal                                                         
# Label:                             CH2-CO-CS-C4H2S                                                                 
# Structure prediction method used:  minima-hopping                                                                  
# Number of atoms:                    14
# Number of atom types:                4
# Atom types:                         C  H  O  S
# Dielectric constant, electronic:   4.21458E+00
# Dielectric constant, ionic:        6.03444E-01
# Dielectric constant, total:        4.81803E+00
# Band gap at the GGA level (eV):    1.23240E+00
# Band gap at the HSE06 level (eV):  2.18040E+00
# Atomization energy (eV/atom):     -5.99961E+00
# Volume of the unit cell (A^3):     1.66891E+02
