# generated using pymatgen
data_H3C3SNO
_symmetry_space_group_name_H-M   'P 1'
_cell_length_a   5.08246735
_cell_length_b   5.27898777
_cell_length_c   7.67541901
_cell_angle_alpha   87.60154290
_cell_angle_beta   85.95160184
_cell_angle_gamma   64.65747066
_symmetry_Int_Tables_number   1
_chemical_formula_structural   H3C3SNO
_chemical_formula_sum   'H6 C6 S2 N2 O2'
_cell_volume   185.635803805
_cell_formula_units_Z   2
loop_
 _symmetry_equiv_pos_site_id
 _symmetry_equiv_pos_as_xyz
  1  'x, y, z'
loop_
 _atom_site_type_symbol
 _atom_site_label
 _atom_site_symmetry_multiplicity
 _atom_site_fract_x
 _atom_site_fract_y
 _atom_site_fract_z
 _atom_site_occupancy
  C  C1  1  0.582725  0.730619  0.806887  1
  C  C2  1  0.582733  0.230626  0.306881  1
  C  C3  1  0.545588  0.025635  0.844333  1
  C  C4  1  0.545587  0.525641  0.344330  1
  C  C5  1  0.451724  0.223460  0.137366  1
  C  C6  1  0.451713  0.723457  0.637365  1
  H  H7  1  0.463284  0.674087  0.914714  1
  H  H8  1  0.463304  0.174082  0.414711  1
  H  H9  1  0.812818  0.582347  0.811932  1
  H  H10  1  0.812826  0.082358  0.311925  1
  H  H11  1  0.838536  0.906772  0.047707  1
  H  H12  1  0.838524  0.406779  0.547704  1
  N  N13  1  0.640536  0.056001  0.011995  1
  N  N14  1  0.640524  0.556010  0.511993  1
  O  O15  1  0.424963  0.230981  0.752043  1
  O  O16  1  0.424953  0.730999  0.252040  1
  S  S17  1  0.095275  0.405133  0.115632  1
  S  S18  1  0.095265  0.905129  0.615631  1
 
# Source:                            Mannodi-Kanakkithodi_etal:SciRep.inpress(2016)                                  
# Class:                             organic_polymer_crystal                                                         
# Label:                             CH2-CO-NH-CS                                                                    
# Structure prediction method used:  minima-hopping                                                                  
# Number of atoms:                    18
# Number of atom types:                5
# Atom types:                         C  H  N  O  S
# Dielectric constant, electronic:   3.70774E+00
# Dielectric constant, ionic:        7.77004E-01
# Dielectric constant, total:        4.48475E+00
# Band gap at the GGA level (eV):    1.72030E+00
# Band gap at the HSE06 level (eV):  3.03480E+00
# Atomization energy (eV/atom):     -5.80458E+00
# Volume of the unit cell (A^3):     1.85636E+02
