# generated using pymatgen
data_H6C9S2
_symmetry_space_group_name_H-M   'P 1'
_cell_length_a   6.13664299
_cell_length_b   7.79296191
_cell_length_c   7.90815304
_cell_angle_alpha   90.28849723
_cell_angle_beta   90.33866810
_cell_angle_gamma   109.77865053
_symmetry_Int_Tables_number   1
_chemical_formula_structural   H6C9S2
_chemical_formula_sum   'H12 C18 S4'
_cell_volume   355.861963174
_cell_formula_units_Z   2
loop_
 _symmetry_equiv_pos_site_id
 _symmetry_equiv_pos_as_xyz
  1  'x, y, z'
loop_
 _atom_site_type_symbol
 _atom_site_label
 _atom_site_symmetry_multiplicity
 _atom_site_fract_x
 _atom_site_fract_y
 _atom_site_fract_z
 _atom_site_occupancy
  C  C1  1  0.938168  0.494926  0.948417  1
  C  C2  1  0.303055  0.649614  0.536290  1
  C  C3  1  0.302767  0.648810  0.365645  1
  C  C4  1  0.089946  0.596996  0.632530  1
  C  C5  1  0.089388  0.595972  0.267248  1
  C  C6  1  0.096486  0.528198  0.794252  1
  C  C7  1  0.094881  0.526445  0.104987  1
  C  C8  1  0.886863  0.595189  0.536111  1
  C  C9  1  0.886681  0.594934  0.361956  1
  C  C10  1  0.448215  0.996965  0.940631  1
  C  C11  1  0.814933  0.149712  0.528595  1
  C  C12  1  0.813369  0.145867  0.357996  1
  C  C13  1  0.602436  0.100057  0.625537  1
  C  C14  1  0.599537  0.094460  0.260235  1
  C  C15  1  0.608205  0.030872  0.787156  1
  C  C16  1  0.602902  0.024072  0.097972  1
  C  C17  1  0.399865  0.099567  0.529279  1
  C  C18  1  0.398538  0.097031  0.355089  1
  H  H19  1  0.725230  0.572011  0.602016  1
  H  H20  1  0.814223  0.353674  0.946237  1
  H  H21  1  0.837236  0.586879  0.948553  1
  H  H22  1  0.465429  0.696068  0.298762  1
  H  H23  1  0.466019  0.697798  0.604759  1
  H  H24  1  0.724797  0.571275  0.294504  1
  H  H25  1  0.238965  0.078624  0.595528  1
  H  H26  1  0.321681  0.856669  0.935834  1
  H  H27  1  0.349916  0.090878  0.941526  1
  H  H28  1  0.975444  0.189812  0.290361  1
  H  H29  1  0.978460  0.197743  0.596366  1
  H  H30  1  0.236692  0.074092  0.287842  1
  S  S31  1  0.326039  0.439519  0.817930  1
  S  S32  1  0.319644  0.433201  0.082857  1
  S  S33  1  0.837090  0.941275  0.810764  1
  S  S34  1  0.823418  0.926694  0.075373  1
 
# Source:                            Mannodi-Kanakkithodi_etal:SciRep.inpress(2016)                                  
# Class:                             organic_polymer_crystal                                                         
# Label:                             CH2-CS-C6H4-CS                                                                  
# Structure prediction method used:  minima-hopping                                                                  
# Number of atoms:                    34
# Number of atom types:                3
# Atom types:                         C  H  S
# Dielectric constant, electronic:   1.19951E+01
# Dielectric constant, ionic:        1.07951E+00
# Dielectric constant, total:        1.30746E+01
# Band gap at the GGA level (eV):    9.45900E-01
# Band gap at the HSE06 level (eV):  1.48340E+00
# Atomization energy (eV/atom):     -5.90628E+00
# Volume of the unit cell (A^3):     3.55862E+02
