# generated using pymatgen
data_H7C8SN
_symmetry_space_group_name_H-M   'P 1'
_cell_length_a   3.81083181
_cell_length_b   5.73078245
_cell_length_c   7.52248055
_cell_angle_alpha   91.70805524
_cell_angle_beta   93.87409889
_cell_angle_gamma   97.81056720
_symmetry_Int_Tables_number   1
_chemical_formula_structural   H7C8SN
_chemical_formula_sum   'H7 C8 S1 N1'
_cell_volume   162.261428927
_cell_formula_units_Z   1
loop_
 _symmetry_equiv_pos_site_id
 _symmetry_equiv_pos_as_xyz
  1  'x, y, z'
loop_
 _atom_site_type_symbol
 _atom_site_label
 _atom_site_symmetry_multiplicity
 _atom_site_fract_x
 _atom_site_fract_y
 _atom_site_fract_z
 _atom_site_occupancy
  C  C1  1  0.520008  0.385797  0.060394  1
  C  C2  1  0.435772  0.739179  0.478981  1
  C  C3  1  0.349458  0.706334  0.652416  1
  C  C4  1  0.569457  0.560960  0.379988  1
  C  C5  1  0.415852  0.500040  0.740162  1
  C  C6  1  0.644166  0.594011  0.195101  1
  C  C7  1  0.625575  0.351418  0.466958  1
  C  C8  1  0.564412  0.325074  0.645552  1
  H  H9  1  0.737477  0.214983  0.395508  1
  H  H10  1  0.361392  0.244563  0.126051  1
  H  H11  1  0.744398  0.313986  0.007155  1
  H  H12  1  0.183768  0.609123  0.951840  1
  H  H13  1  0.223705  0.837091  0.722937  1
  H  H14  1  0.378433  0.895933  0.412843  1
  H  H15  1  0.625220  0.168573  0.712055  1
  N  N16  1  0.305253  0.470647  0.910976  1
  S  S17  1  0.820379  0.853373  0.121791  1
 
# Source:                            Mannodi-Kanakkithodi_etal:SciRep.inpress(2016)                                  
# Class:                             organic_polymer_crystal                                                         
# Label:                             CH2-CS-C6H4-NH                                                                  
# Structure prediction method used:  minima-hopping                                                                  
# Number of atoms:                    17
# Number of atom types:                4
# Atom types:                         C  H  N  S
# Dielectric constant, electronic:   4.54729E+00
# Dielectric constant, ionic:        9.63943E-01
# Dielectric constant, total:        5.51123E+00
# Band gap at the GGA level (eV):    1.29700E+00
# Band gap at the HSE06 level (eV):  2.11480E+00
# Atomization energy (eV/atom):     -5.94990E+00
# Volume of the unit cell (A^3):     1.62261E+02
