# generated using pymatgen
data_H6C8SO
_symmetry_space_group_name_H-M   'P 1'
_cell_length_a   5.75504860
_cell_length_b   7.62516274
_cell_length_c   8.17129657
_cell_angle_alpha   64.69723120
_cell_angle_beta   82.90189155
_cell_angle_gamma   77.88473174
_symmetry_Int_Tables_number   1
_chemical_formula_structural   H6C8SO
_chemical_formula_sum   'H12 C16 S2 O2'
_cell_volume   316.727684619
_cell_formula_units_Z   2
loop_
 _symmetry_equiv_pos_site_id
 _symmetry_equiv_pos_as_xyz
  1  'x, y, z'
loop_
 _atom_site_type_symbol
 _atom_site_label
 _atom_site_symmetry_multiplicity
 _atom_site_fract_x
 _atom_site_fract_y
 _atom_site_fract_z
 _atom_site_occupancy
  C  C1  1  0.887071  0.278045  0.941331  1
  C  C2  1  0.886588  0.777900  0.941335  1
  C  C3  1  0.234416  0.541696  0.515222  1
  C  C4  1  0.234468  0.041503  0.515517  1
  C  C5  1  0.193719  0.672322  0.336448  1
  C  C6  1  0.194041  0.172143  0.336709  1
  C  C7  1  0.065442  0.423477  0.620192  1
  C  C8  1  0.065323  0.923383  0.620320  1
  C  C9  1  0.987163  0.680815  0.256894  1
  C  C10  1  0.987611  0.180742  0.256961  1
  C  C11  1  0.103949  0.290435  0.810562  1
  C  C12  1  0.103609  0.790283  0.810702  1
  C  C13  1  0.856302  0.437215  0.537727  1
  C  C14  1  0.856288  0.937243  0.537666  1
  C  C15  1  0.820241  0.560473  0.355851  1
  C  C16  1  0.820507  0.060526  0.355750  1
  H  H17  1  0.727210  0.343715  0.614366  1
  H  H18  1  0.727099  0.843805  0.614164  1
  H  H19  1  0.841608  0.630862  0.000146  1
  H  H20  1  0.841987  0.131039  0.000052  1
  H  H21  1  0.734389  0.387843  0.875217  1
  H  H22  1  0.733902  0.887598  0.875103  1
  H  H23  1  0.313313  0.773890  0.257498  1
  H  H24  1  0.313766  0.273643  0.257887  1
  H  H25  1  0.389384  0.538515  0.579676  1
  H  H26  1  0.389338  0.038227  0.580115  1
  H  H27  1  0.664090  0.565151  0.291291  1
  H  H28  1  0.664452  0.065276  0.291049  1
  O  O29  1  0.944998  0.827100  0.084577  1
  O  O30  1  0.945829  0.327017  0.084604  1
  S  S31  1  0.366409  0.163487  0.889860  1
  S  S32  1  0.366010  0.663301  0.890107  1
 
# Source:                            Mannodi-Kanakkithodi_etal:SciRep.inpress(2016)                                  
# Class:                             organic_polymer_crystal                                                         
# Label:                             CH2-CS-C6H4-O                                                                   
# Structure prediction method used:  minima-hopping                                                                  
# Number of atoms:                    32
# Number of atom types:                4
# Atom types:                         C  H  O  S
# Dielectric constant, electronic:   3.95154E+00
# Dielectric constant, ionic:        5.29050E-01
# Dielectric constant, total:        4.48059E+00
# Band gap at the GGA level (eV):    1.29300E+00
# Band gap at the HSE06 level (eV):  2.37060E+00
# Atomization energy (eV/atom):     -5.98796E+00
# Volume of the unit cell (A^3):     3.16728E+02
