# generated using pymatgen
data_H3C2SNO
_symmetry_space_group_name_H-M   'P 1'
_cell_length_a   3.73336053
_cell_length_b   4.96326378
_cell_length_c   4.70667266
_cell_angle_alpha   103.99044281
_cell_angle_beta   92.61553294
_cell_angle_gamma   99.57803539
_symmetry_Int_Tables_number   1
_chemical_formula_structural   H3C2SNO
_chemical_formula_sum   'H3 C2 S1 N1 O1'
_cell_volume   83.1095783161
_cell_formula_units_Z   1
loop_
 _symmetry_equiv_pos_site_id
 _symmetry_equiv_pos_as_xyz
  1  'x, y, z'
loop_
 _atom_site_type_symbol
 _atom_site_label
 _atom_site_symmetry_multiplicity
 _atom_site_fract_x
 _atom_site_fract_y
 _atom_site_fract_z
 _atom_site_occupancy
  C  C1  1  0.386114  0.935227  0.084278  1
  C  C2  1  0.536331  0.099302  0.394717  1
  H  H3  1  0.415014  0.712413  0.042064  1
  H  H4  1  0.399472  0.737208  0.533566  1
  H  H5  1  0.100285  0.949505  0.045634  1
  N  N6  1  0.432756  0.954514  0.592822  1
  S  S7  1  0.786232  0.422980  0.479303  1
  O  O8  1  0.597224  0.071551  0.885837  1
 
# Source:                            Mannodi-Kanakkithodi_etal:SciRep.inpress(2016)                                  
# Class:                             organic_polymer_crystal                                                         
# Label:                             CH2-CS-NH-O                                                                     
# Structure prediction method used:  minima-hopping                                                                  
# Number of atoms:                     8
# Number of atom types:                5
# Atom types:                         C  H  N  S  O
# Dielectric constant, electronic:   3.77582E+00
# Dielectric constant, ionic:        1.16072E+00
# Dielectric constant, total:        4.93654E+00
# Band gap at the GGA level (eV):    1.93540E+00
# Band gap at the HSE06 level (eV):  3.25540E+00
# Atomization energy (eV/atom):     -5.27280E+00
# Volume of the unit cell (A^3):     8.31096E+01
