# generated using pymatgen
data_H5C6S2N
_symmetry_space_group_name_H-M   'P 1'
_cell_length_a   5.20131699
_cell_length_b   7.33951160
_cell_length_c   9.06381387
_cell_angle_alpha   110.12006330
_cell_angle_beta   94.88315032
_cell_angle_gamma   109.55640021
_symmetry_Int_Tables_number   1
_chemical_formula_structural   H5C6S2N
_chemical_formula_sum   'H10 C12 S4 N2'
_cell_volume   298.208637569
_cell_formula_units_Z   2
loop_
 _symmetry_equiv_pos_site_id
 _symmetry_equiv_pos_as_xyz
  1  'x, y, z'
loop_
 _atom_site_type_symbol
 _atom_site_label
 _atom_site_symmetry_multiplicity
 _atom_site_fract_x
 _atom_site_fract_y
 _atom_site_fract_z
 _atom_site_occupancy
  C  C1  1  0.983659  0.480104  0.176167  1
  C  C2  1  0.483663  0.980106  0.676169  1
  C  C3  1  0.889194  0.561198  0.074257  1
  C  C4  1  0.389197  0.061200  0.574257  1
  C  C5  1  0.959478  0.505254  0.922272  1
  C  C6  1  0.459477  0.005255  0.422272  1
  C  C7  1  0.138089  0.360259  0.105765  1
  C  C8  1  0.638093  0.860259  0.605765  1
  C  C9  1  0.779459  0.720946  0.807895  1
  C  C10  1  0.279456  0.220946  0.307895  1
  C  C11  1  0.918990  0.562307  0.792766  1
  C  C12  1  0.418989  0.062308  0.292765  1
  H  H13  1  0.898018  0.866008  0.915344  1
  H  H14  1  0.398014  0.366006  0.415345  1
  H  H15  1  0.952334  0.508911  0.297514  1
  H  H16  1  0.452341  0.008914  0.797515  1
  H  H17  1  0.773930  0.662084  0.108164  1
  H  H18  1  0.273936  0.162085  0.608165  1
  H  H19  1  0.565107  0.656039  0.822949  1
  H  H20  1  0.065105  0.156038  0.322949  1
  H  H21  1  0.380259  0.190612  0.087191  1
  H  H22  1  0.880262  0.690612  0.587190  1
  N  N23  1  0.275869  0.264530  0.162212  1
  N  N24  1  0.775871  0.764531  0.662212  1
  S  S25  1  0.030909  0.463315  0.623007  1
  S  S26  1  0.530906  0.963314  0.123007  1
  S  S27  1  0.151908  0.343469  0.908555  1
  S  S28  1  0.651907  0.843469  0.408555  1
 
# Source:                            Mannodi-Kanakkithodi_etal:SciRep.inpress(2016)                                  
# Class:                             organic_polymer_crystal                                                         
# Label:                             CH2-NH-C4H2S-CS                                                                 
# Structure prediction method used:  minima-hopping                                                                  
# Number of atoms:                    28
# Number of atom types:                4
# Atom types:                         C  H  N  S
# Dielectric constant, electronic:   5.06683E+00
# Dielectric constant, ionic:        1.14918E+00
# Dielectric constant, total:        6.21601E+00
# Band gap at the GGA level (eV):    1.04050E+00
# Band gap at the HSE06 level (eV):  1.68060E+00
# Atomization energy (eV/atom):     -5.78155E+00
# Volume of the unit cell (A^3):     2.98209E+02
