# generated using pymatgen
data_H9C11SN
_symmetry_space_group_name_H-M   'P 1'
_cell_length_a   3.75592510
_cell_length_b   8.85093233
_cell_length_c   12.45796065
_cell_angle_alpha   98.25970508
_cell_angle_beta   90.28303638
_cell_angle_gamma   102.28080335
_symmetry_Int_Tables_number   1
_chemical_formula_structural   H9C11SN
_chemical_formula_sum   'H18 C22 S2 N2'
_cell_volume   400.201002205
_cell_formula_units_Z   2
loop_
 _symmetry_equiv_pos_site_id
 _symmetry_equiv_pos_as_xyz
  1  'x, y, z'
loop_
 _atom_site_type_symbol
 _atom_site_label
 _atom_site_symmetry_multiplicity
 _atom_site_fract_x
 _atom_site_fract_y
 _atom_site_fract_z
 _atom_site_occupancy
  C  C1  1  0.846578  0.731863  0.197486  1
  C  C2  1  0.346368  0.731902  0.697492  1
  C  C3  1  0.627178  0.590118  0.144788  1
  C  C4  1  0.127003  0.590151  0.644793  1
  C  C5  1  0.595911  0.579227  0.033524  1
  C  C6  1  0.095806  0.579247  0.533527  1
  C  C7  1  0.990458  0.834082  0.127935  1
  C  C8  1  0.490288  0.834114  0.627941  1
  C  C9  1  0.216114  0.283030  0.783912  1
  C  C10  1  0.716247  0.282999  0.283917  1
  C  C11  1  0.412717  0.419279  0.847439  1
  C  C12  1  0.912795  0.419259  0.347444  1
  C  C13  1  0.989125  0.166017  0.832460  1
  C  C14  1  0.489182  0.166001  0.332459  1
  C  C15  1  0.388816  0.444306  0.960735  1
  C  C16  1  0.888764  0.444314  0.460735  1
  C  C17  1  0.234274  0.994029  0.158569  1
  C  C18  1  0.734090  0.994065  0.658573  1
  C  C19  1  0.960816  0.191470  0.946284  1
  C  C20  1  0.460749  0.191481  0.446279  1
  C  C21  1  0.152898  0.326378  0.007790  1
  C  C22  1  0.652781  0.326402  0.507785  1
  H  H23  1  0.775108  0.104584  0.984239  1
  H  H24  1  0.274979  0.104611  0.484229  1
  H  H25  1  0.571101  0.978934  0.816948  1
  H  H26  1  0.071147  0.978923  0.316933  1
  H  H27  1  0.898262  0.753571  0.284497  1
  H  H28  1  0.397993  0.753618  0.784506  1
  H  H29  1  0.501630  0.497464  0.188772  1
  H  H30  1  0.001433  0.497500  0.688777  1
  H  H31  1  0.589379  0.506478  0.807608  1
  H  H32  1  0.089529  0.506442  0.307616  1
  H  H33  1  0.236160  0.268561  0.696486  1
  H  H34  1  0.736404  0.268505  0.196494  1
  H  H35  1  0.117478  0.343323  0.094389  1
  H  H36  1  0.617263  0.343367  0.594379  1
  H  H37  1  0.498205  0.998500  0.120671  1
  H  H38  1  0.997991  0.998549  0.620655  1
  H  H39  1  0.116808  0.084708  0.128894  1
  H  H40  1  0.616571  0.084743  0.628917  1
  N  N41  1  0.793086  0.024757  0.776717  1
  N  N42  1  0.293182  0.024735  0.276717  1
  S  S43  1  0.850102  0.752667  0.993095  1
  S  S44  1  0.350016  0.752682  0.493098  1
 
# Source:                            Mannodi-Kanakkithodi_etal:SciRep.inpress(2016)                                  
# Class:                             organic_polymer_crystal                                                         
# Label:                             CH2-NH-C6H4-C4H2S                                                               
# Structure prediction method used:  minima-hopping                                                                  
# Number of atoms:                    44
# Number of atom types:                4
# Atom types:                         C  H  N  S
# Dielectric constant, electronic:   3.81853E+00
# Dielectric constant, ionic:        5.35574E-01
# Dielectric constant, total:        4.35411E+00
# Band gap at the GGA level (eV):    2.27030E+00
# Band gap at the HSE06 level (eV):  3.12550E+00
# Atomization energy (eV/atom):     -6.04588E+00
# Volume of the unit cell (A^3):     4.00201E+02
