# generated using pymatgen
data_H3C3SNO
_symmetry_space_group_name_H-M   'P 1'
_cell_length_a   4.93768753
_cell_length_b   6.22271733
_cell_length_c   6.27793864
_cell_angle_alpha   73.49103388
_cell_angle_beta   78.04078935
_cell_angle_gamma   80.35240738
_symmetry_Int_Tables_number   1
_chemical_formula_structural   H3C3SNO
_chemical_formula_sum   'H6 C6 S2 N2 O2'
_cell_volume   179.709577101
_cell_formula_units_Z   2
loop_
 _symmetry_equiv_pos_site_id
 _symmetry_equiv_pos_as_xyz
  1  'x, y, z'
loop_
 _atom_site_type_symbol
 _atom_site_label
 _atom_site_symmetry_multiplicity
 _atom_site_fract_x
 _atom_site_fract_y
 _atom_site_fract_z
 _atom_site_occupancy
  C  C1  1  0.114169  0.733541  0.229520  1
  C  C2  1  0.604516  0.735305  0.211721  1
  C  C3  1  0.114505  0.235395  0.728821  1
  C  C4  1  0.604696  0.236513  0.712215  1
  C  C5  1  0.824685  0.366757  0.734036  1
  C  C6  1  0.824161  0.864700  0.235585  1
  H  H7  1  0.278513  0.006295  0.256059  1
  H  H8  1  0.613027  0.569005  0.330624  1
  H  H9  1  0.660598  0.698515  0.045909  1
  H  H10  1  0.279381  0.508839  0.753253  1
  H  H11  1  0.612184  0.071625  0.833609  1
  H  H12  1  0.661204  0.196571  0.547899  1
  N  N13  1  0.320424  0.846333  0.236305  1
  N  N14  1  0.320994  0.348506  0.734530  1
  O  O15  1  0.781122  0.565052  0.742554  1
  O  O16  1  0.780297  0.062454  0.245899  1
  S  S17  1  0.165066  0.468547  0.204445  1
  S  S18  1  0.164971  0.969598  0.706143  1
 
# Source:                            Mannodi-Kanakkithodi_etal:SciRep.inpress(2016)                                  
# Class:                             organic_polymer_crystal                                                         
# Label:                             CH2-NH-CS-CO                                                                    
# Structure prediction method used:  minima-hopping                                                                  
# Number of atoms:                    18
# Number of atom types:                5
# Atom types:                         C  H  N  O  S
# Dielectric constant, electronic:   4.09295E+00
# Dielectric constant, ionic:        1.10738E+00
# Dielectric constant, total:        5.20033E+00
# Band gap at the GGA level (eV):    8.99500E-01
# Band gap at the HSE06 level (eV):  2.10030E+00
# Atomization energy (eV/atom):     -5.79248E+00
# Volume of the unit cell (A^3):     1.79710E+02
