# generated using pymatgen
data_H3C2SNO
_symmetry_space_group_name_H-M   'P 1'
_cell_length_a   5.40291264
_cell_length_b   5.69071572
_cell_length_c   6.03325343
_cell_angle_alpha   73.48363903
_cell_angle_beta   82.72842127
_cell_angle_gamma   64.08265389
_symmetry_Int_Tables_number   1
_chemical_formula_structural   H3C2SNO
_chemical_formula_sum   'H6 C4 S2 N2 O2'
_cell_volume   159.95957532
_cell_formula_units_Z   2
loop_
 _symmetry_equiv_pos_site_id
 _symmetry_equiv_pos_as_xyz
  1  'x, y, z'
loop_
 _atom_site_type_symbol
 _atom_site_label
 _atom_site_symmetry_multiplicity
 _atom_site_fract_x
 _atom_site_fract_y
 _atom_site_fract_z
 _atom_site_occupancy
  C  C1  1  0.811062  0.160414  0.742223  1
  C  C2  1  0.311063  0.660415  0.242226  1
  C  C3  1  0.937131  0.015797  0.382216  1
  C  C4  1  0.437134  0.515795  0.882220  1
  H  H5  1  0.943514  0.069990  0.893042  1
  H  H6  1  0.443517  0.570000  0.393043  1
  H  H7  1  0.663202  0.075279  0.754205  1
  H  H8  1  0.163210  0.575273  0.254211  1
  H  H9  1  0.163274  0.132983  0.535206  1
  H  H10  1  0.663276  0.632982  0.035209  1
  N  N11  1  0.974976  0.130131  0.537323  1
  N  N12  1  0.474985  0.630130  0.037325  1
  O  O13  1  0.159399  0.953125  0.233551  1
  O  O14  1  0.659404  0.453122  0.733556  1
  S  S15  1  0.663625  0.964641  0.357181  1
  S  S16  1  0.163628  0.464642  0.857183  1
 
# Source:                            Mannodi-Kanakkithodi_etal:SciRep.inpress(2016)                                  
# Class:                             organic_polymer_crystal                                                         
# Label:                             CH2-NH-CS-O                                                                     
# Structure prediction method used:  minima-hopping                                                                  
# Number of atoms:                    16
# Number of atom types:                5
# Atom types:                         C  H  N  O  S
# Dielectric constant, electronic:   3.48665E+00
# Dielectric constant, ionic:        1.03043E+00
# Dielectric constant, total:        4.51708E+00
# Band gap at the GGA level (eV):    2.86640E+00
# Band gap at the HSE06 level (eV):  4.22010E+00
# Atomization energy (eV/atom):     -5.48770E+00
# Volume of the unit cell (A^3):     1.59960E+02
