# generated using pymatgen
data_H5C5SNO
_symmetry_space_group_name_H-M   'P 1'
_cell_length_a   5.67606526
_cell_length_b   6.73871796
_cell_length_c   7.55527981
_cell_angle_alpha   65.70511684
_cell_angle_beta   69.59805687
_cell_angle_gamma   81.22070809
_symmetry_Int_Tables_number   1
_chemical_formula_structural   H5C5SNO
_chemical_formula_sum   'H10 C10 S2 N2 O2'
_cell_volume   246.855556391
_cell_formula_units_Z   2
loop_
 _symmetry_equiv_pos_site_id
 _symmetry_equiv_pos_as_xyz
  1  'x, y, z'
loop_
 _atom_site_type_symbol
 _atom_site_label
 _atom_site_symmetry_multiplicity
 _atom_site_fract_x
 _atom_site_fract_y
 _atom_site_fract_z
 _atom_site_occupancy
  C  C1  1  0.379406  0.807057  0.077572  1
  C  C2  1  0.379399  0.307059  0.577571  1
  C  C3  1  0.531918  0.678192  0.968341  1
  C  C4  1  0.531914  0.178195  0.468342  1
  C  C5  1  0.155765  0.713679  0.215574  1
  C  C6  1  0.155759  0.213678  0.715574  1
  C  C7  1  0.415669  0.487817  0.023524  1
  C  C8  1  0.415671  0.987816  0.523527  1
  C  C9  1  0.955533  0.296663  0.858890  1
  C  C10  1  0.955541  0.796665  0.358889  1
  H  H11  1  0.897903  0.173935  0.015540  1
  H  H12  1  0.897914  0.673940  0.515541  1
  H  H13  1  0.712408  0.725492  0.852611  1
  H  H14  1  0.712404  0.225496  0.352612  1
  H  H15  1  0.432662  0.964832  0.056113  1
  H  H16  1  0.432651  0.464835  0.556113  1
  H  H17  1  0.023837  0.440100  0.858684  1
  H  H18  1  0.023847  0.940104  0.358680  1
  H  H19  1  0.709105  0.250867  0.732326  1
  H  H20  1  0.709110  0.750866  0.232331  1
  N  N21  1  0.730720  0.363488  0.784196  1
  N  N22  1  0.730724  0.863488  0.284200  1
  O  O23  1  0.492551  0.314989  0.966069  1
  O  O24  1  0.492559  0.814987  0.466075  1
  S  S25  1  0.120235  0.462421  0.207602  1
  S  S26  1  0.120236  0.962418  0.707604  1
 
# Source:                            Mannodi-Kanakkithodi_etal:SciRep.inpress(2016)                                  
# Class:                             organic_polymer_crystal                                                         
# Label:                             CH2-NH-O-C4H2S                                                                  
# Structure prediction method used:  minima-hopping                                                                  
# Number of atoms:                    26
# Number of atom types:                5
# Atom types:                         C  H  N  O  S
# Dielectric constant, electronic:   3.43679E+00
# Dielectric constant, ionic:        3.79937E-01
# Dielectric constant, total:        3.81672E+00
# Band gap at the GGA level (eV):    2.95630E+00
# Band gap at the HSE06 level (eV):  4.05910E+00
# Atomization energy (eV/atom):     -5.65847E+00
# Volume of the unit cell (A^3):     2.46856E+02
