# generated using pymatgen
data_H7C7NO
_symmetry_space_group_name_H-M   'P 1'
_cell_length_a   5.90506847
_cell_length_b   6.74795449
_cell_length_c   7.42828892
_cell_angle_alpha   82.27918998
_cell_angle_beta   68.24256895
_cell_angle_gamma   67.71569151
_symmetry_Int_Tables_number   1
_chemical_formula_structural   H7C7NO
_chemical_formula_sum   'H14 C14 N2 O2'
_cell_volume   254.371033411
_cell_formula_units_Z   2
loop_
 _symmetry_equiv_pos_site_id
 _symmetry_equiv_pos_as_xyz
  1  'x, y, z'
loop_
 _atom_site_type_symbol
 _atom_site_label
 _atom_site_symmetry_multiplicity
 _atom_site_fract_x
 _atom_site_fract_y
 _atom_site_fract_z
 _atom_site_occupancy
  C  C1  1  0.803748  0.715176  0.116524  1
  C  C2  1  0.303747  0.215179  0.616523  1
  C  C3  1  0.412622  0.261178  0.081168  1
  C  C4  1  0.912619  0.761180  0.581170  1
  C  C5  1  0.365114  0.184884  0.939242  1
  C  C6  1  0.865112  0.684886  0.439244  1
  C  C7  1  0.454330  0.456133  0.054002  1
  C  C8  1  0.954329  0.956135  0.554001  1
  C  C9  1  0.356459  0.300396  0.768612  1
  C  C10  1  0.856459  0.800395  0.268613  1
  C  C11  1  0.441985  0.575758  0.886951  1
  C  C12  1  0.941986  0.075757  0.386950  1
  C  C13  1  0.395232  0.495542  0.745571  1
  C  C14  1  0.895234  0.995541  0.245570  1
  H  H15  1  0.470416  0.727030  0.866453  1
  H  H16  1  0.970419  0.227029  0.366450  1
  H  H17  1  0.848156  0.804732  0.982407  1
  H  H18  1  0.348155  0.304736  0.482406  1
  H  H19  1  0.924743  0.546123  0.086114  1
  H  H20  1  0.424742  0.046126  0.586112  1
  H  H21  1  0.426841  0.784939  0.316518  1
  H  H22  1  0.926838  0.284943  0.816515  1
  H  H23  1  0.337315  0.032541  0.962498  1
  H  H24  1  0.837311  0.532543  0.462502  1
  H  H25  1  0.420513  0.170655  0.211535  1
  H  H26  1  0.920508  0.670659  0.711538  1
  H  H27  1  0.390539  0.586869  0.614570  1
  H  H28  1  0.890544  0.086865  0.114568  1
  N  N29  1  0.523775  0.732708  0.175855  1
  N  N30  1  0.023774  0.232711  0.675853  1
  O  O31  1  0.514037  0.511626  0.200582  1
  O  O32  1  0.014036  0.011629  0.700581  1
 
# Source:                            Mannodi-Kanakkithodi_etal:SciRep.inpress(2016)                                  
# Class:                             organic_polymer_crystal                                                         
# Label:                             CH2-NH-O-C6H4                                                                   
# Structure prediction method used:  minima-hopping                                                                  
# Number of atoms:                    32
# Number of atom types:                4
# Atom types:                         C  H  N  O
# Dielectric constant, electronic:   3.34673E+00
# Dielectric constant, ionic:        2.93742E-01
# Dielectric constant, total:        3.64047E+00
# Band gap at the GGA level (eV):    3.08830E+00
# Band gap at the HSE06 level (eV):  4.16470E+00
# Atomization energy (eV/atom):     -5.90172E+00
# Volume of the unit cell (A^3):     2.54371E+02
