# generated using pymatgen
data_H4C5SO2
_symmetry_space_group_name_H-M   'P 1'
_cell_length_a   5.45622022
_cell_length_b   6.56834311
_cell_length_c   7.46862099
_cell_angle_alpha   108.26735614
_cell_angle_beta   95.19591851
_cell_angle_gamma   107.53677686
_symmetry_Int_Tables_number   1
_chemical_formula_structural   H4C5SO2
_chemical_formula_sum   'H8 C10 S2 O4'
_cell_volume   237.247691844
_cell_formula_units_Z   2
loop_
 _symmetry_equiv_pos_site_id
 _symmetry_equiv_pos_as_xyz
  1  'x, y, z'
loop_
 _atom_site_type_symbol
 _atom_site_label
 _atom_site_symmetry_multiplicity
 _atom_site_fract_x
 _atom_site_fract_y
 _atom_site_fract_z
 _atom_site_occupancy
  C  C1  1  0.390796  0.228520  0.415848  1
  C  C2  1  0.387797  0.228020  0.916892  1
  C  C3  1  0.638645  0.402555  0.519093  1
  C  C4  1  0.636537  0.400999  0.019758  1
  C  C5  1  0.650839  0.614073  0.524066  1
  C  C6  1  0.651177  0.612632  0.023467  1
  C  C7  1  0.222211  0.315467  0.345804  1
  C  C8  1  0.220973  0.316031  0.846197  1
  C  C9  1  0.820500  0.997243  0.751675  1
  C  C10  1  0.824148  0.994765  0.252313  1
  H  H11  1  0.879424  0.991593  0.892627  1
  H  H12  1  0.886693  0.988850  0.392504  1
  H  H13  1  0.338077  0.049540  0.397477  1
  H  H14  1  0.333380  0.049118  0.899209  1
  H  H15  1  0.798880  0.372860  0.589272  1
  H  H16  1  0.795666  0.370421  0.090457  1
  H  H17  1  0.615064  0.979811  0.719217  1
  H  H18  1  0.618200  0.976719  0.222460  1
  O  O19  1  0.867911  0.812471  0.604879  1
  O  O20  1  0.869264  0.810391  0.103439  1
  O  O21  1  0.969078  0.206456  0.238736  1
  O  O22  1  0.968065  0.208419  0.738585  1
  S  S23  1  0.351789  0.611612  0.405391  1
  S  S24  1  0.353257  0.611834  0.904752  1
 
# Source:                            Mannodi-Kanakkithodi_etal:SciRep.inpress(2016)                                  
# Class:                             organic_polymer_crystal                                                         
# Label:                             CH2-O-C4H2S-O                                                                   
# Structure prediction method used:  minima-hopping                                                                  
# Number of atoms:                    24
# Number of atom types:                4
# Atom types:                         C  H  O  S
# Dielectric constant, electronic:   3.18516E+00
# Dielectric constant, ionic:        6.31921E-01
# Dielectric constant, total:        3.81708E+00
# Band gap at the GGA level (eV):    3.21120E+00
# Band gap at the HSE06 level (eV):  4.36010E+00
# Atomization energy (eV/atom):     -5.78252E+00
# Volume of the unit cell (A^3):     2.37248E+02
