# generated using pymatgen
data_H6C7O2
_symmetry_space_group_name_H-M   'P 1'
_cell_length_a   6.13468525
_cell_length_b   5.89889426
_cell_length_c   8.71448796
_cell_angle_alpha   55.22629898
_cell_angle_beta   70.02587574
_cell_angle_gamma   73.40052805
_symmetry_Int_Tables_number   1
_chemical_formula_structural   H6C7O2
_chemical_formula_sum   'H12 C14 O4'
_cell_volume   241.765254103
_cell_formula_units_Z   2
loop_
 _symmetry_equiv_pos_site_id
 _symmetry_equiv_pos_as_xyz
  1  'x, y, z'
loop_
 _atom_site_type_symbol
 _atom_site_label
 _atom_site_symmetry_multiplicity
 _atom_site_fract_x
 _atom_site_fract_y
 _atom_site_fract_z
 _atom_site_occupancy
  C  C1  1  0.052901  0.123215  0.795282  1
  C  C2  1  0.052913  0.623219  0.295284  1
  C  C3  1  0.630041  0.172059  0.477019  1
  C  C4  1  0.630038  0.672071  0.977022  1
  C  C5  1  0.779083  0.063213  0.366688  1
  C  C6  1  0.779095  0.563225  0.866683  1
  C  C7  1  0.395800  0.125368  0.548734  1
  C  C8  1  0.395794  0.625366  0.048739  1
  C  C9  1  0.693991  0.903932  0.332560  1
  C  C10  1  0.693993  0.403933  0.832558  1
  C  C11  1  0.309195  0.972547  0.509946  1
  C  C12  1  0.309186  0.472551  0.009947  1
  C  C13  1  0.460190  0.859141  0.402488  1
  C  C14  1  0.460184  0.359140  0.902486  1
  H  H15  1  0.126927  0.938961  0.562843  1
  H  H16  1  0.126932  0.438962  0.062842  1
  H  H17  1  0.048606  0.619033  0.422230  1
  H  H18  1  0.048607  0.119034  0.922229  1
  H  H19  1  0.061595  0.914950  0.826495  1
  H  H20  1  0.061599  0.414944  0.326497  1
  H  H21  1  0.961657  0.096626  0.309904  1
  H  H22  1  0.961661  0.596634  0.809905  1
  H  H23  1  0.692315  0.288164  0.511503  1
  H  H24  1  0.692315  0.788172  0.011503  1
  H  H25  1  0.398645  0.736729  0.372922  1
  H  H26  1  0.398648  0.236736  0.872919  1
  O  O27  1  0.257582  0.246608  0.655701  1
  O  O28  1  0.257576  0.746602  0.155701  1
  O  O29  1  0.842190  0.779898  0.228995  1
  O  O30  1  0.842202  0.279907  0.728996  1
 
# Source:                            Mannodi-Kanakkithodi_etal:SciRep.inpress(2016)                                  
# Class:                             organic_polymer_crystal                                                         
# Label:                             CH2-O-C6H4-O                                                                    
# Structure prediction method used:  minima-hopping                                                                  
# Number of atoms:                    30
# Number of atom types:                3
# Atom types:                         C  H  O
# Dielectric constant, electronic:   3.20026E+00
# Dielectric constant, ionic:        5.95979E-01
# Dielectric constant, total:        3.79624E+00
# Band gap at the GGA level (eV):    3.44520E+00
# Band gap at the HSE06 level (eV):  4.68500E+00
# Atomization energy (eV/atom):     -6.03186E+00
# Volume of the unit cell (A^3):     2.41765E+02
