# generated using pymatgen
data_H6C13S3O
_symmetry_space_group_name_H-M   'P 1'
_cell_length_a   3.72761098
_cell_length_b   5.62136367
_cell_length_c   12.91615805
_cell_angle_alpha   79.72388251
_cell_angle_beta   73.64208598
_cell_angle_gamma   79.04287061
_symmetry_Int_Tables_number   1
_chemical_formula_structural   H6C13S3O
_chemical_formula_sum   'H6 C13 S3 O1'
_cell_volume   252.709192259
_cell_formula_units_Z   1
loop_
 _symmetry_equiv_pos_site_id
 _symmetry_equiv_pos_as_xyz
  1  'x, y, z'
loop_
 _atom_site_type_symbol
 _atom_site_label
 _atom_site_symmetry_multiplicity
 _atom_site_fract_x
 _atom_site_fract_y
 _atom_site_fract_z
 _atom_site_occupancy
  C  C1  1  0.317996  0.276545  0.919139  1
  C  C2  1  0.338571  0.256356  0.293569  1
  C  C3  1  0.338319  0.257295  0.810047  1
  C  C4  1  0.326649  0.278377  0.183778  1
  C  C5  1  0.979729  0.742603  0.597510  1
  C  C6  1  0.984712  0.744132  0.488499  1
  C  C7  1  0.144342  0.505214  0.948636  1
  C  C8  1  0.181842  0.469099  0.341374  1
  C  C9  1  0.154556  0.507458  0.147000  1
  C  C10  1  0.179311  0.469199  0.754988  1
  C  C11  1  0.146403  0.523229  0.448658  1
  C  C12  1  0.141636  0.522120  0.645298  1
  C  C13  1  0.058328  0.623092  0.046094  1
  H  H14  1  0.442990  0.131332  0.134645  1
  H  H15  1  0.461503  0.092589  0.773015  1
  H  H16  1  0.863136  0.899312  0.640738  1
  H  H17  1  0.429848  0.128148  0.972468  1
  H  H18  1  0.462235  0.091311  0.336025  1
  H  H19  1  0.870559  0.901891  0.439722  1
  O  O20  1  0.887876  0.841795  0.043041  1
  S  S21  1  0.005951  0.697482  0.839568  1
  S  S22  1  0.014335  0.698621  0.248825  1
  S  S23  1  0.298283  0.310579  0.550947  1
 
# Source:                            Mannodi-Kanakkithodi_etal:SciRep.inpress(2016)                                  
# Class:                             organic_polymer_crystal                                                         
# Label:                             CO-C4H2S-C4H2S-C4H2S                                                            
# Structure prediction method used:  minima-hopping                                                                  
# Number of atoms:                    23
# Number of atom types:                4
# Atom types:                         C  H  O  S
# Dielectric constant, electronic:   7.32161E+00
# Dielectric constant, ionic:        1.17773E+00
# Dielectric constant, total:        8.49934E+00
# Band gap at the GGA level (eV):    8.78800E-01
# Band gap at the HSE06 level (eV):  1.26080E+00
# Atomization energy (eV/atom):     -6.26845E+00
# Volume of the unit cell (A^3):     2.52709E+02
