# generated using pymatgen
data_H4C9(SO)2
_symmetry_space_group_name_H-M   'P 1'
_cell_length_a   3.56857043
_cell_length_b   5.67781238
_cell_length_c   9.62787149
_cell_angle_alpha   76.82668954
_cell_angle_beta   85.19961319
_cell_angle_gamma   90.56135687
_symmetry_Int_Tables_number   1
_chemical_formula_structural   H4C9(SO)2
_chemical_formula_sum   'H4 C9 S2 O2'
_cell_volume   189.193310213
_cell_formula_units_Z   1
loop_
 _symmetry_equiv_pos_site_id
 _symmetry_equiv_pos_as_xyz
  1  'x, y, z'
loop_
 _atom_site_type_symbol
 _atom_site_label
 _atom_site_symmetry_multiplicity
 _atom_site_fract_x
 _atom_site_fract_y
 _atom_site_fract_z
 _atom_site_occupancy
  C  C1  1  0.367599  0.074563  0.688430  1
  C  C2  1  0.398551  0.918353  0.822854  1
  C  C3  1  0.349035  0.104194  0.184315  1
  C  C4  1  0.347246  0.955198  0.323979  1
  C  C5  1  0.493984  0.974218  0.574795  1
  C  C6  1  0.559484  0.700308  0.813847  1
  C  C7  1  0.475999  0.071067  0.423159  1
  C  C8  1  0.482686  0.334322  0.177746  1
  C  C9  1  0.646098  0.499073  0.926391  1
  H  H10  1  0.304202  0.961766  0.922893  1
  H  H11  1  0.239241  0.048747  0.095573  1
  H  H12  1  0.237923  0.248713  0.674511  1
  H  H13  1  0.237059  0.770944  0.353006  1
  O  O14  1  0.820756  0.319934  0.912321  1
  O  O15  1  0.502759  0.534046  0.063138  1
  S  S16  1  0.665669  0.685952  0.635391  1
  S  S17  1  0.608866  0.372607  0.342296  1
 
# Source:                            Mannodi-Kanakkithodi_etal:SciRep.inpress(2016)                                  
# Class:                             organic_polymer_crystal                                                         
# Label:                             CO-C4H2S-C4H2S-O                                                                
# Structure prediction method used:  minima-hopping                                                                  
# Number of atoms:                    17
# Number of atom types:                4
# Atom types:                         C  H  O  S
# Dielectric constant, electronic:   4.21183E+00
# Dielectric constant, ionic:        1.24032E+00
# Dielectric constant, total:        5.45215E+00
# Band gap at the GGA level (eV):    1.53220E+00
# Band gap at the HSE06 level (eV):  2.31450E+00
# Atomization energy (eV/atom):     -6.26795E+00
# Volume of the unit cell (A^3):     1.89193E+02
