# generated using pymatgen
data_H6C12S2O
_symmetry_space_group_name_H-M   'P 1'
_cell_length_a   3.91299394
_cell_length_b   6.01435903
_cell_length_c   10.20736455
_cell_angle_alpha   82.53301671
_cell_angle_beta   81.59786633
_cell_angle_gamma   72.61727457
_symmetry_Int_Tables_number   1
_chemical_formula_structural   H6C12S2O
_chemical_formula_sum   'H6 C12 S2 O1'
_cell_volume   225.840724301
_cell_formula_units_Z   1
loop_
 _symmetry_equiv_pos_site_id
 _symmetry_equiv_pos_as_xyz
  1  'x, y, z'
loop_
 _atom_site_type_symbol
 _atom_site_label
 _atom_site_symmetry_multiplicity
 _atom_site_fract_x
 _atom_site_fract_y
 _atom_site_fract_z
 _atom_site_occupancy
  C  C1  1  0.039505  0.531667  0.642444  1
  C  C2  1  0.970032  0.507390  0.781112  1
  C  C3  1  0.326580  0.353069  0.591116  1
  C  C4  1  0.203240  0.309585  0.840159  1
  C  C5  1  0.267590  0.261664  0.979276  1
  C  C6  1  0.489362  0.584796  0.388860  1
  C  C7  1  0.680373  0.609866  0.265786  1
  C  C8  1  0.506116  0.360678  0.455543  1
  C  C9  1  0.892979  0.412002  0.200198  1
  C  C10  1  0.092162  0.453974  0.070660  1
  C  C11  1  0.712232  0.163400  0.389612  1
  C  C12  1  0.897142  0.187607  0.263303  1
  H  H13  1  0.722208  0.989430  0.436858  1
  H  H14  1  0.760090  0.631135  0.837484  1
  H  H15  1  0.887603  0.676899  0.580750  1
  H  H16  1  0.666962  0.783098  0.217695  1
  H  H17  1  0.335214  0.740182  0.437162  1
  H  H18  1  0.049514  0.033254  0.214186  1
  O  O19  1  0.495847  0.083921  0.023015  1
  S  S20  1  0.499325  0.143027  0.718423  1
  S  S21  1  0.191105  0.702763  0.022770  1
 
# Source:                            Mannodi-Kanakkithodi_etal:SciRep.inpress(2016)                                  
# Class:                             organic_polymer_crystal                                                         
# Label:                             CO-C4H2S-C6H4-CS                                                                
# Structure prediction method used:  minima-hopping                                                                  
# Number of atoms:                    21
# Number of atom types:                4
# Atom types:                         C  H  O  S
# Dielectric constant, electronic:   5.19048E+00
# Dielectric constant, ionic:        8.27141E-01
# Dielectric constant, total:        6.01762E+00
# Band gap at the GGA level (eV):    1.03980E+00
# Band gap at the HSE06 level (eV):  1.92650E+00
# Atomization energy (eV/atom):     -6.29439E+00
# Volume of the unit cell (A^3):     2.25841E+02
