# generated using pymatgen
data_H2C5SO
_symmetry_space_group_name_H-M   'P 1'
_cell_length_a   3.53656727
_cell_length_b   9.75071981
_cell_length_c   12.22307229
_cell_angle_alpha   75.76046217
_cell_angle_beta   87.67004323
_cell_angle_gamma   79.99600130
_symmetry_Int_Tables_number   1
_chemical_formula_structural   H2C5SO
_chemical_formula_sum   'H8 C20 S4 O4'
_cell_volume   402.338372734
_cell_formula_units_Z   4
loop_
 _symmetry_equiv_pos_site_id
 _symmetry_equiv_pos_as_xyz
  1  'x, y, z'
loop_
 _atom_site_type_symbol
 _atom_site_label
 _atom_site_symmetry_multiplicity
 _atom_site_fract_x
 _atom_site_fract_y
 _atom_site_fract_z
 _atom_site_occupancy
  C  C1  1  0.242221  0.711761  0.329093  1
  C  C2  1  0.737889  0.713392  0.826184  1
  C  C3  1  0.711799  0.210543  0.573924  1
  C  C4  1  0.226591  0.213271  0.072410  1
  C  C5  1  0.242082  0.851245  0.258345  1
  C  C6  1  0.746967  0.852847  0.756730  1
  C  C7  1  0.566540  0.349559  0.507071  1
  C  C8  1  0.082768  0.352030  0.004776  1
  C  C9  1  0.306753  0.949232  0.318221  1
  C  C10  1  0.816026  0.948727  0.817943  1
  C  C11  1  0.453169  0.448512  0.571887  1
  C  C12  1  0.934950  0.448436  0.069100  1
  C  C13  1  0.290933  0.707459  0.442145  1
  C  C14  1  0.782369  0.707178  0.939672  1
  C  C15  1  0.720853  0.207409  0.688085  1
  C  C16  1  0.201038  0.208199  0.187038  1
  C  C17  1  0.287124  0.600595  0.550429  1
  C  C18  1  0.757234  0.599410  0.046492  1
  C  C19  1  0.854764  0.099810  0.792150  1
  C  C20  1  0.333447  0.101597  0.291815  1
  H  H21  1  0.198783  0.621065  0.297856  1
  H  H22  1  0.688120  0.624372  0.793825  1
  H  H23  1  0.813506  0.119300  0.538811  1
  H  H24  1  0.353334  0.123904  0.037771  1
  H  H25  1  0.205507  0.876560  0.167763  1
  H  H26  1  0.714109  0.879559  0.666000  1
  H  H27  1  0.539557  0.373734  0.416276  1
  H  H28  1  0.081753  0.378071  0.913530  1
  O  O29  1  0.166977  0.648227  0.634601  1
  O  O30  1  0.604846  0.645064  0.128371  1
  O  O31  1  0.976111  0.145351  0.869637  1
  O  O32  1  0.444632  0.148930  0.369717  1
  S  S33  1  0.347222  0.872893  0.462384  1
  S  S34  1  0.847857  0.870588  0.961991  1
  S  S35  1  0.540227  0.373049  0.714669  1
  S  S36  1  0.988408  0.371421  0.212804  1
 
# Source:                            Mannodi-Kanakkithodi_etal:SciRep.inpress(2016)                                  
# Class:                             organic_polymer_crystal                                                         
# Label:                             CO-C4H2S-CO-C4H2S                                                               
# Structure prediction method used:  minima-hopping                                                                  
# Number of atoms:                    36
# Number of atom types:                4
# Atom types:                         C  H  O  S
# Dielectric constant, electronic:   4.35936E+00
# Dielectric constant, ionic:        9.08259E-01
# Dielectric constant, total:        5.26762E+00
# Band gap at the GGA level (eV):    1.10370E+00
# Band gap at the HSE06 level (eV):  1.86300E+00
# Atomization energy (eV/atom):     -6.36846E+00
# Volume of the unit cell (A^3):     4.02338E+02
