# generated using pymatgen
data_H2C7(SO)2
_symmetry_space_group_name_H-M   'P 1'
_cell_length_a   3.65613766
_cell_length_b   8.00930984
_cell_length_c   10.94217293
_cell_angle_alpha   104.02282585
_cell_angle_beta   90.92685444
_cell_angle_gamma   100.68068794
_symmetry_Int_Tables_number   1
_chemical_formula_structural   H2C7(SO)2
_chemical_formula_sum   'H4 C14 S4 O4'
_cell_volume   304.858963975
_cell_formula_units_Z   2
loop_
 _symmetry_equiv_pos_site_id
 _symmetry_equiv_pos_as_xyz
  1  'x, y, z'
loop_
 _atom_site_type_symbol
 _atom_site_label
 _atom_site_symmetry_multiplicity
 _atom_site_fract_x
 _atom_site_fract_y
 _atom_site_fract_z
 _atom_site_occupancy
  C  C1  1  0.009771  0.125257  0.577893  1
  C  C2  1  0.509794  0.625257  0.077894  1
  C  C3  1  0.149141  0.222369  0.491336  1
  C  C4  1  0.649159  0.722369  0.991337  1
  C  C5  1  0.906039  0.945460  0.523037  1
  C  C6  1  0.406046  0.445460  0.023038  1
  C  C7  1  0.157364  0.115133  0.370600  1
  C  C8  1  0.657365  0.615133  0.870599  1
  C  C9  1  0.273353  0.148022  0.248855  1
  C  C10  1  0.773346  0.648022  0.748854  1
  C  C11  1  0.723010  0.798212  0.570557  1
  C  C12  1  0.223018  0.298213  0.070557  1
  C  C13  1  0.690445  0.807273  0.709696  1
  C  C14  1  0.190453  0.307274  0.209696  1
  H  H15  1  0.244077  0.363011  0.516263  1
  H  H16  1  0.744106  0.863009  0.016264  1
  H  H17  1  0.974040  0.184595  0.675450  1
  H  H18  1  0.474077  0.684594  0.175453  1
  O  O19  1  0.566144  0.657368  0.496865  1
  O  O20  1  0.066148  0.157368  0.996865  1
  O  O21  1  0.427050  0.041254  0.176085  1
  O  O22  1  0.927043  0.541252  0.676083  1
  S  S23  1  0.995618  0.895344  0.363976  1
  S  S24  1  0.495605  0.395344  0.863974  1
  S  S25  1  0.505421  0.959875  0.800131  1
  S  S26  1  0.005426  0.459876  0.300129  1
 
# Source:                            Mannodi-Kanakkithodi_etal:SciRep.inpress(2016)                                  
# Class:                             organic_polymer_crystal                                                         
# Label:                             CO-C4H2S-CO-CS                                                                  
# Structure prediction method used:  minima-hopping                                                                  
# Number of atoms:                    26
# Number of atom types:                4
# Atom types:                         C  H  O  S
# Dielectric constant, electronic:   5.54263E+00
# Dielectric constant, ionic:        1.15063E+00
# Dielectric constant, total:        6.69326E+00
# Band gap at the GGA level (eV):    1.79000E-01
# Band gap at the HSE06 level (eV):  1.19020E+00
# Atomization energy (eV/atom):     -6.32992E+00
# Volume of the unit cell (A^3):     3.04859E+02
