# generated using pymatgen
data_H2C6SO3
_symmetry_space_group_name_H-M   'P 1'
_cell_length_a   4.49707775
_cell_length_b   6.64203608
_cell_length_c   9.57768113
_cell_angle_alpha   72.33462935
_cell_angle_beta   78.21314073
_cell_angle_gamma   81.49084333
_symmetry_Int_Tables_number   1
_chemical_formula_structural   H2C6SO3
_chemical_formula_sum   'H4 C12 S2 O6'
_cell_volume   265.708832599
_cell_formula_units_Z   2
loop_
 _symmetry_equiv_pos_site_id
 _symmetry_equiv_pos_as_xyz
  1  'x, y, z'
loop_
 _atom_site_type_symbol
 _atom_site_label
 _atom_site_symmetry_multiplicity
 _atom_site_fract_x
 _atom_site_fract_y
 _atom_site_fract_z
 _atom_site_occupancy
  C  C1  1  0.756787  0.545615  0.849197  1
  C  C2  1  0.756783  0.045611  0.349196  1
  C  C3  1  0.533545  0.664813  0.926478  1
  C  C4  1  0.533541  0.164811  0.426476  1
  C  C5  1  0.343076  0.536972  0.039179  1
  C  C6  1  0.343072  0.036971  0.539178  1
  C  C7  1  0.737859  0.329067  0.907987  1
  C  C8  1  0.737854  0.829063  0.407988  1
  C  C9  1  0.089018  0.579561  0.152901  1
  C  C10  1  0.089017  0.079564  0.652900  1
  C  C11  1  0.942875  0.153150  0.880826  1
  C  C12  1  0.942870  0.653145  0.380828  1
  H  H13  1  0.930802  0.612657  0.757999  1
  H  H14  1  0.930797  0.112651  0.257997  1
  H  H15  1  0.513951  0.835076  0.901365  1
  H  H16  1  0.513948  0.335074  0.401361  1
  O  O17  1  0.850649  0.496536  0.181961  1
  O  O18  1  0.850645  0.996541  0.681960  1
  O  O19  1  0.149344  0.699437  0.238566  1
  O  O20  1  0.149347  0.199441  0.738563  1
  O  O21  1  0.957599  0.474815  0.465750  1
  O  O22  1  0.957606  0.974819  0.965749  1
  S  S23  1  0.435068  0.269454  0.054140  1
  S  S24  1  0.435065  0.769453  0.554142  1
 
# Source:                            Mannodi-Kanakkithodi_etal:SciRep.inpress(2016)                                  
# Class:                             organic_polymer_crystal                                                         
# Label:                             CO-C4H2S-CO-O                                                                   
# Structure prediction method used:  minima-hopping                                                                  
# Number of atoms:                    24
# Number of atom types:                4
# Atom types:                         C  H  O  S
# Dielectric constant, electronic:   3.53849E+00
# Dielectric constant, ionic:        1.07898E+00
# Dielectric constant, total:        4.61747E+00
# Band gap at the GGA level (eV):    2.23380E+00
# Band gap at the HSE06 level (eV):  3.20200E+00
# Atomization energy (eV/atom):     -6.48684E+00
# Volume of the unit cell (A^3):     2.65709E+02
