# generated using pymatgen
data_HC3SO
_symmetry_space_group_name_H-M   'P 1'
_cell_length_a   3.62577235
_cell_length_b   8.08411066
_cell_length_c   10.18426264
_cell_angle_alpha   70.36128078
_cell_angle_beta   89.12877721
_cell_angle_gamma   85.37295954
_symmetry_Int_Tables_number   1
_chemical_formula_structural   HC3SO
_chemical_formula_sum   'H4 C12 S4 O4'
_cell_volume   280.209268253
_cell_formula_units_Z   4
loop_
 _symmetry_equiv_pos_site_id
 _symmetry_equiv_pos_as_xyz
  1  'x, y, z'
loop_
 _atom_site_type_symbol
 _atom_site_label
 _atom_site_symmetry_multiplicity
 _atom_site_fract_x
 _atom_site_fract_y
 _atom_site_fract_z
 _atom_site_occupancy
  C  C1  1  0.125361  0.478494  0.166525  1
  C  C2  1  0.125334  0.978491  0.666528  1
  C  C3  1  0.111067  0.387254  0.071528  1
  C  C4  1  0.111034  0.887251  0.571531  1
  C  C5  1  0.936642  0.484933  0.945357  1
  C  C6  1  0.936633  0.984933  0.445358  1
  C  C7  1  0.955168  0.647591  0.113524  1
  C  C8  1  0.955163  0.147592  0.613523  1
  C  C9  1  0.859283  0.448319  0.818481  1
  C  C10  1  0.859287  0.948320  0.318480  1
  C  C11  1  0.013979  0.275890  0.798943  1
  C  C12  1  0.013980  0.775890  0.298943  1
  H  H13  1  0.256491  0.422911  0.266899  1
  H  H14  1  0.256449  0.922906  0.766904  1
  H  H15  1  0.227487  0.253789  0.096327  1
  H  H16  1  0.227436  0.753781  0.596334  1
  O  O17  1  0.660307  0.556518  0.724507  1
  O  O18  1  0.660325  0.056524  0.224501  1
  O  O19  1  0.901055  0.782464  0.167457  1
  O  O20  1  0.901056  0.282466  0.667456  1
  S  S21  1  0.779362  0.697080  0.945369  1
  S  S22  1  0.779369  0.197083  0.445366  1
  S  S23  1  0.261747  0.115276  0.912824  1
  S  S24  1  0.261750  0.615278  0.412825  1
 
# Source:                            Mannodi-Kanakkithodi_etal:SciRep.inpress(2016)                                  
# Class:                             organic_polymer_crystal                                                         
# Label:                             CO-C4H2S-O-CS                                                                   
# Structure prediction method used:  minima-hopping                                                                  
# Number of atoms:                    24
# Number of atom types:                4
# Atom types:                         C  H  O  S
# Dielectric constant, electronic:   5.34674E+00
# Dielectric constant, ionic:        9.72438E-01
# Dielectric constant, total:        6.31918E+00
# Band gap at the GGA level (eV):    8.02500E-01
# Band gap at the HSE06 level (eV):  1.67010E+00
# Atomization energy (eV/atom):     -6.16589E+00
# Volume of the unit cell (A^3):     2.80209E+02
