# generated using pymatgen
data_H12C19O
_symmetry_space_group_name_H-M   'P 1'
_cell_length_a   3.60532185
_cell_length_b   5.75604199
_cell_length_c   13.73709231
_cell_angle_alpha   90.01176789
_cell_angle_beta   90.03999491
_cell_angle_gamma   101.51898939
_symmetry_Int_Tables_number   1
_chemical_formula_structural   H12C19O
_chemical_formula_sum   'H12 C19 O1'
_cell_volume   279.335463033
_cell_formula_units_Z   1
loop_
 _symmetry_equiv_pos_site_id
 _symmetry_equiv_pos_as_xyz
  1  'x, y, z'
loop_
 _atom_site_type_symbol
 _atom_site_label
 _atom_site_symmetry_multiplicity
 _atom_site_fract_x
 _atom_site_fract_y
 _atom_site_fract_z
 _atom_site_occupancy
  C  C1  1  0.577167  0.681952  0.189658  1
  C  C2  1  0.463959  0.632937  0.843497  1
  C  C3  1  0.554775  0.733702  0.519119  1
  C  C4  1  0.464264  0.632925  0.092846  1
  C  C5  1  0.576881  0.681948  0.746736  1
  C  C6  1  0.554760  0.733724  0.417315  1
  C  C7  1  0.540683  0.501734  0.260055  1
  C  C8  1  0.296332  0.400494  0.871242  1
  C  C9  1  0.633245  0.539883  0.571866  1
  C  C10  1  0.296332  0.400510  0.065021  1
  C  C11  1  0.540724  0.501697  0.676321  1
  C  C12  1  0.633226  0.539920  0.364553  1
  C  C13  1  0.383915  0.268516  0.229936  1
  C  C14  1  0.261930  0.220018  0.800608  1
  C  C15  1  0.755396  0.359695  0.518575  1
  C  C16  1  0.261620  0.220072  0.135636  1
  C  C17  1  0.384258  0.268451  0.706365  1
  C  C18  1  0.755381  0.359715  0.417846  1
  C  C19  1  0.138006  0.313448  0.968093  1
  H  H20  1  0.345040  0.125054  0.282355  1
  H  H21  1  0.139466  0.040662  0.822054  1
  H  H22  1  0.848343  0.217277  0.556892  1
  H  H23  1  0.502576  0.778739  0.041607  1
  H  H24  1  0.698002  0.862960  0.726261  1
  H  H25  1  0.452147  0.873197  0.379337  1
  H  H26  1  0.698514  0.862947  0.210200  1
  H  H27  1  0.502009  0.778799  0.894746  1
  H  H28  1  0.452132  0.873145  0.557099  1
  H  H29  1  0.138910  0.040735  0.114129  1
  H  H30  1  0.345615  0.124949  0.653927  1
  H  H31  1  0.848351  0.217315  0.379528  1
  O  O32  1  0.871232  0.136929  0.968027  1
 
# Source:                            Mannodi-Kanakkithodi_etal:SciRep.inpress(2016)                                  
# Class:                             organic_polymer_crystal                                                         
# Label:                             CO-C6H4-C6H4-C6H4                                                               
# Structure prediction method used:  minima-hopping                                                                  
# Number of atoms:                    32
# Number of atom types:                3
# Atom types:                         C  H  O
# Dielectric constant, electronic:   4.08760E+00
# Dielectric constant, ionic:        4.05688E-01
# Dielectric constant, total:        4.49328E+00
# Band gap at the GGA level (eV):    1.80470E+00
# Band gap at the HSE06 level (eV):  2.54790E+00
# Atomization energy (eV/atom):     -6.41521E+00
# Volume of the unit cell (A^3):     2.79335E+02
