# generated using pymatgen
data_H8C14SO
_symmetry_space_group_name_H-M   'P 1'
_cell_length_a   3.67427851
_cell_length_b   6.07914502
_cell_length_c   10.80201306
_cell_angle_alpha   90.29117781
_cell_angle_beta   97.95858854
_cell_angle_gamma   105.53527881
_symmetry_Int_Tables_number   1
_chemical_formula_structural   H8C14SO
_chemical_formula_sum   'H8 C14 S1 O1'
_cell_volume   230.00001959
_cell_formula_units_Z   1
loop_
 _symmetry_equiv_pos_site_id
 _symmetry_equiv_pos_as_xyz
  1  'x, y, z'
loop_
 _atom_site_type_symbol
 _atom_site_label
 _atom_site_symmetry_multiplicity
 _atom_site_fract_x
 _atom_site_fract_y
 _atom_site_fract_z
 _atom_site_occupancy
  C  C1  1  0.921293  0.439536  0.018806  1
  C  C2  1  0.349525  0.633156  0.218023  1
  C  C3  1  0.298722  0.742934  0.609830  1
  C  C4  1  0.415411  0.650261  0.347920  1
  C  C5  1  0.254096  0.778396  0.732988  1
  C  C6  1  0.063131  0.449017  0.154913  1
  C  C7  1  0.215615  0.519598  0.555559  1
  C  C8  1  0.202726  0.483521  0.419786  1
  C  C9  1  0.126165  0.591944  0.808753  1
  C  C10  1  0.047506  0.635000  0.934846  1
  C  C11  1  0.874630  0.271677  0.226006  1
  C  C12  1  0.113075  0.334795  0.633689  1
  C  C13  1  0.945337  0.288003  0.355714  1
  C  C14  1  0.071853  0.368850  0.757581  1
  H  H15  1  0.653904  0.129956  0.178214  1
  H  H16  1  0.062641  0.161259  0.596757  1
  H  H17  1  0.635897  0.793903  0.394451  1
  H  H18  1  0.313318  0.950818  0.772278  1
  H  H19  1  0.517557  0.763090  0.165428  1
  H  H20  1  0.383830  0.889820  0.553096  1
  H  H21  1  0.773628  0.158289  0.407922  1
  H  H22  1  0.988671  0.222533  0.813878  1
  O  O23  1  0.646665  0.279791  0.970981  1
  S  S24  1  0.986894  0.879732  0.982621  1
 
# Source:                            Mannodi-Kanakkithodi_etal:SciRep.inpress(2016)                                  
# Class:                             organic_polymer_crystal                                                         
# Label:                             CO-C6H4-C6H4-CS                                                                 
# Structure prediction method used:  minima-hopping                                                                  
# Number of atoms:                    24
# Number of atom types:                4
# Atom types:                         C  H  O  S
# Dielectric constant, electronic:   4.90085E+00
# Dielectric constant, ionic:        6.72204E-01
# Dielectric constant, total:        5.57306E+00
# Band gap at the GGA level (eV):    1.03400E+00
# Band gap at the HSE06 level (eV):  2.06430E+00
# Atomization energy (eV/atom):     -6.36676E+00
# Volume of the unit cell (A^3):     2.30000E+02
