# generated using pymatgen
data_H8C13O2
_symmetry_space_group_name_H-M   'P 1'
_cell_length_a   3.48939567
_cell_length_b   5.59514431
_cell_length_c   10.66401319
_cell_angle_alpha   78.60290632
_cell_angle_beta   84.59320057
_cell_angle_gamma   85.08087705
_symmetry_Int_Tables_number   1
_chemical_formula_structural   H8C13O2
_chemical_formula_sum   'H8 C13 O2'
_cell_volume   202.705907423
_cell_formula_units_Z   1
loop_
 _symmetry_equiv_pos_site_id
 _symmetry_equiv_pos_as_xyz
  1  'x, y, z'
loop_
 _atom_site_type_symbol
 _atom_site_label
 _atom_site_symmetry_multiplicity
 _atom_site_fract_x
 _atom_site_fract_y
 _atom_site_fract_z
 _atom_site_occupancy
  C  C1  1  0.635627  0.417803  0.983143  1
  C  C2  1  0.403378  0.672441  0.777539  1
  C  C3  1  0.579798  0.746310  0.356648  1
  C  C4  1  0.371223  0.698261  0.646416  1
  C  C5  1  0.581129  0.765793  0.224103  1
  C  C6  1  0.566640  0.453246  0.846338  1
  C  C7  1  0.467597  0.533793  0.441438  1
  C  C8  1  0.490577  0.505787  0.581364  1
  C  C9  1  0.462024  0.572503  0.176876  1
  C  C10  1  0.679871  0.257941  0.783136  1
  C  C11  1  0.345577  0.343513  0.389444  1
  C  C12  1  0.638475  0.283609  0.653046  1
  C  C13  1  0.337984  0.361570  0.257852  1
  H  H14  1  0.802234  0.089152  0.837870  1
  H  H15  1  0.244513  0.181708  0.453062  1
  H  H16  1  0.243252  0.867180  0.593822  1
  H  H17  1  0.681848  0.924498  0.157896  1
  H  H18  1  0.307657  0.821345  0.826756  1
  H  H19  1  0.687500  0.892515  0.393663  1
  H  H20  1  0.729968  0.132521  0.605021  1
  H  H21  1  0.230693  0.218666  0.218786  1
  O  O22  1  0.454063  0.602149  0.041765  1
  O  O23  1  0.839927  0.247865  0.038921  1
 
# Source:                            Mannodi-Kanakkithodi_etal:SciRep.inpress(2016)                                  
# Class:                             organic_polymer_crystal                                                         
# Label:                             CO-C6H4-C6H4-O                                                                  
# Structure prediction method used:  minima-hopping                                                                  
# Number of atoms:                    23
# Number of atom types:                3
# Atom types:                         C  H  O
# Dielectric constant, electronic:   3.62098E+00
# Dielectric constant, ionic:        5.16394E-01
# Dielectric constant, total:        4.13737E+00
# Band gap at the GGA level (eV):    2.25870E+00
# Band gap at the HSE06 level (eV):  3.08470E+00
# Atomization energy (eV/atom):     -6.43885E+00
# Volume of the unit cell (A^3):     2.02706E+02
