# generated using pymatgen
data_H4C9SO2
_symmetry_space_group_name_H-M   'P 1'
_cell_length_a   4.10053686
_cell_length_b   5.78003462
_cell_length_c   7.47169638
_cell_angle_alpha   90.13666506
_cell_angle_beta   101.75157206
_cell_angle_gamma   106.93405356
_symmetry_Int_Tables_number   1
_chemical_formula_structural   H4C9SO2
_chemical_formula_sum   'H4 C9 S1 O2'
_cell_volume   165.498823022
_cell_formula_units_Z   1
loop_
 _symmetry_equiv_pos_site_id
 _symmetry_equiv_pos_as_xyz
  1  'x, y, z'
loop_
 _atom_site_type_symbol
 _atom_site_label
 _atom_site_symmetry_multiplicity
 _atom_site_fract_x
 _atom_site_fract_y
 _atom_site_fract_z
 _atom_site_occupancy
  C  C1  1  0.583859  0.486400  0.938439  1
  C  C2  1  0.647547  0.556035  0.270128  1
  C  C3  1  0.092355  0.268601  0.668744  1
  C  C4  1  0.871419  0.284574  0.503311  1
  C  C5  1  0.341803  0.477949  0.760283  1
  C  C6  1  0.884370  0.513066  0.435179  1
  C  C7  1  0.369742  0.704484  0.685424  1
  C  C8  1  0.137976  0.722272  0.527231  1
  C  C9  1  0.468721  0.375595  0.106752  1
  H  H10  1  0.564052  0.864442  0.757875  1
  H  H11  1  0.687543  0.121691  0.430207  1
  H  H12  1  0.075199  0.094743  0.725542  1
  H  H13  1  0.151856  0.895167  0.469488  1
  O  O14  1  0.586646  0.754113  0.253391  1
  O  O15  1  0.895919  0.604993  0.961107  1
  S  S16  1  0.185364  0.113659  0.114191  1
 
# Source:                            Mannodi-Kanakkithodi_etal:SciRep.inpress(2016)                                  
# Class:                             organic_polymer_crystal                                                         
# Label:                             CO-C6H4-CO-CS                                                                   
# Structure prediction method used:  minima-hopping                                                                  
# Number of atoms:                    16
# Number of atom types:                4
# Atom types:                         C  H  O  S
# Dielectric constant, electronic:   4.40695E+00
# Dielectric constant, ionic:        6.20711E-01
# Dielectric constant, total:        5.02766E+00
# Band gap at the GGA level (eV):    5.02000E-01
# Band gap at the HSE06 level (eV):  1.67530E+00
# Atomization energy (eV/atom):     -6.42497E+00
# Volume of the unit cell (A^3):     1.65499E+02
