# generated using pymatgen
data_H8C14SO
_symmetry_space_group_name_H-M   'P 1'
_cell_length_a   5.09357359
_cell_length_b   6.02521225
_cell_length_c   8.23965663
_cell_angle_alpha   86.10866178
_cell_angle_beta   83.80200199
_cell_angle_gamma   66.21991809
_symmetry_Int_Tables_number   1
_chemical_formula_structural   H8C14SO
_chemical_formula_sum   'H8 C14 S1 O1'
_cell_volume   229.969995464
_cell_formula_units_Z   1
loop_
 _symmetry_equiv_pos_site_id
 _symmetry_equiv_pos_as_xyz
  1  'x, y, z'
loop_
 _atom_site_type_symbol
 _atom_site_label
 _atom_site_symmetry_multiplicity
 _atom_site_fract_x
 _atom_site_fract_y
 _atom_site_fract_z
 _atom_site_occupancy
  C  C1  1  0.701326  0.521050  0.040886  1
  C  C2  1  0.937071  0.029898  0.541518  1
  C  C3  1  0.554986  0.883195  0.220951  1
  C  C4  1  0.304223  0.001070  0.730432  1
  C  C5  1  0.609874  0.997578  0.345859  1
  C  C6  1  0.479334  0.885991  0.854611  1
  C  C7  1  0.764150  0.660507  0.163273  1
  C  C8  1  0.137715  0.895568  0.665833  1
  C  C9  1  0.495984  0.658002  0.917700  1
  C  C10  1  0.874934  0.897353  0.416213  1
  C  C11  1  0.028609  0.559176  0.232729  1
  C  C12  1  0.153787  0.667683  0.730328  1
  C  C13  1  0.084741  0.675333  0.356684  1
  C  C14  1  0.331345  0.551133  0.853943  1
  H  H15  1  0.189575  0.388426  0.188019  1
  H  H16  1  0.023874  0.584016  0.685874  1
  H  H17  1  0.610084  0.969271  0.899107  1
  H  H18  1  0.446254  0.165903  0.391689  1
  H  H19  1  0.346489  0.962712  0.171846  1
  H  H20  1  0.296674  0.173854  0.680548  1
  H  H21  1  0.342394  0.376691  0.903246  1
  H  H22  1  0.292691  0.595525  0.405696  1
  O  O23  1  0.817623  0.294844  0.041707  1
  S  S24  1  0.782202  0.330436  0.543740  1
 
# Source:                            Mannodi-Kanakkithodi_etal:SciRep.inpress(2016)                                  
# Class:                             organic_polymer_crystal                                                         
# Label:                             CO-C6H4-CS-C6H4                                                                 
# Structure prediction method used:  minima-hopping                                                                  
# Number of atoms:                    24
# Number of atom types:                4
# Atom types:                         C  H  O  S
# Dielectric constant, electronic:   4.49780E+00
# Dielectric constant, ionic:        4.58209E-01
# Dielectric constant, total:        4.95601E+00
# Band gap at the GGA level (eV):    7.23500E-01
# Band gap at the HSE06 level (eV):  1.55870E+00
# Atomization energy (eV/atom):     -6.37649E+00
# Volume of the unit cell (A^3):     2.29970E+02
