# generated using pymatgen
data_H6C11SO2
_symmetry_space_group_name_H-M   'P 1'
_cell_length_a   6.00183048
_cell_length_b   6.18826946
_cell_length_c   6.68639068
_cell_angle_alpha   114.09930318
_cell_angle_beta   90.50622182
_cell_angle_gamma   117.39875416
_symmetry_Int_Tables_number   1
_chemical_formula_structural   H6C11SO2
_chemical_formula_sum   'H6 C11 S1 O2'
_cell_volume   195.244089908
_cell_formula_units_Z   1
loop_
 _symmetry_equiv_pos_site_id
 _symmetry_equiv_pos_as_xyz
  1  'x, y, z'
loop_
 _atom_site_type_symbol
 _atom_site_label
 _atom_site_symmetry_multiplicity
 _atom_site_fract_x
 _atom_site_fract_y
 _atom_site_fract_z
 _atom_site_occupancy
  C  C1  1  0.443518  0.639034  0.165652  1
  C  C2  1  0.478932  0.902956  0.288189  1
  C  C3  1  0.654574  0.635636  0.086070  1
  C  C4  1  0.722230  0.105935  0.310714  1
  C  C5  1  0.680156  0.397862  0.951563  1
  C  C6  1  0.445069  0.881469  0.757877  1
  C  C7  1  0.231304  0.623562  0.617444  1
  C  C8  1  0.437916  0.124619  0.822642  1
  C  C9  1  0.004790  0.609400  0.541947  1
  C  C10  1  0.205513  0.101439  0.744453  1
  C  C11  1  0.990852  0.846543  0.606625  1
  H  H12  1  0.188652  0.279880  0.786712  1
  H  H13  1  0.333367  0.946911  0.354694  1
  H  H14  1  0.267167  0.455945  0.137780  1
  H  H15  1  0.243899  0.440551  0.567018  1
  H  H16  1  0.622206  0.896197  0.816500  1
  H  H17  1  0.812803  0.828459  0.545508  1
  O  O18  1  0.773900  0.371111  0.399735  1
  O  O19  1  0.897737  0.421701  0.937025  1
  S  S20  1  0.913977  0.974469  0.173325  1
 
# Source:                            Mannodi-Kanakkithodi_etal:SciRep.inpress(2016)                                  
# Class:                             organic_polymer_crystal                                                         
# Label:                             CO-C6H4-O-C4H2S                                                                 
# Structure prediction method used:  minima-hopping                                                                  
# Number of atoms:                    20
# Number of atom types:                4
# Atom types:                         C  H  O  S
# Dielectric constant, electronic:   4.01152E+00
# Dielectric constant, ionic:        8.04520E-01
# Dielectric constant, total:        4.81604E+00
# Band gap at the GGA level (eV):    2.14580E+00
# Band gap at the HSE06 level (eV):  3.07760E+00
# Atomization energy (eV/atom):     -6.33187E+00
# Volume of the unit cell (A^3):     1.95244E+02
