# generated using pymatgen
data_H5C8NO2
_symmetry_space_group_name_H-M   'P 1'
_cell_length_a   5.16004842
_cell_length_b   7.20784625
_cell_length_c   8.91527215
_cell_angle_alpha   70.87640907
_cell_angle_beta   76.38570952
_cell_angle_gamma   70.94671672
_symmetry_Int_Tables_number   1
_chemical_formula_structural   H5C8NO2
_chemical_formula_sum   'H10 C16 N2 O4'
_cell_volume   293.043765944
_cell_formula_units_Z   2
loop_
 _symmetry_equiv_pos_site_id
 _symmetry_equiv_pos_as_xyz
  1  'x, y, z'
loop_
 _atom_site_type_symbol
 _atom_site_label
 _atom_site_symmetry_multiplicity
 _atom_site_fract_x
 _atom_site_fract_y
 _atom_site_fract_z
 _atom_site_occupancy
  C  C1  1  0.337876  0.160798  0.458846  1
  C  C2  1  0.503000  0.960280  0.426809  1
  C  C3  1  0.390656  0.880936  0.340071  1
  C  C4  1  0.745280  0.842239  0.493506  1
  C  C5  1  0.880112  0.651295  0.466301  1
  C  C6  1  0.514840  0.687270  0.321188  1
  C  C7  1  0.764878  0.573018  0.380946  1
  C  C8  1  0.900426  0.378846  0.340193  1
  C  C9  1  0.718187  0.257857  0.807141  1
  C  C10  1  0.878310  0.087086  0.906018  1
  C  C11  1  0.818000  0.891267  0.944021  1
  C  C12  1  0.071784  0.096598  0.994790  1
  C  C13  1  0.521241  0.494365  0.982339  1
  C  C14  1  0.993266  0.704326  0.990066  1
  C  C15  1  0.287508  0.637140  0.933474  1
  C  C16  1  0.374007  0.597039  0.772490  1
  H  H17  1  0.251161  0.234422  0.233152  1
  H  H18  1  0.195205  0.965230  0.296561  1
  H  H19  1  0.420724  0.623645  0.260483  1
  H  H20  1  0.829022  0.898734  0.565224  1
  H  H21  1  0.068769  0.559966  0.514818  1
  H  H22  1  0.630104  0.242525  0.713503  1
  H  H23  1  0.600476  0.898476  0.957435  1
  H  H24  1  0.905063  0.576070  0.044182  1
  H  H25  1  0.161280  0.947276  0.076192  1
  H  H26  1  0.605182  0.409305  0.092456  1
  N  N27  1  0.196256  0.294224  0.329208  1
  N  N28  1  0.636743  0.447963  0.826246  1
  O  O29  1  0.313099  0.199449  0.587328  1
  O  O30  1  0.776621  0.294262  0.291319  1
  O  O31  1  0.148126  0.247982  0.987086  1
  O  O32  1  0.271072  0.629800  0.656183  1
 
# Source:                            Mannodi-Kanakkithodi_etal:SciRep.inpress(2016)                                  
# Class:                             organic_polymer_crystal                                                         
# Label:                             CO-NH-CO-C6H4                                                                   
# Structure prediction method used:  minima-hopping                                                                  
# Number of atoms:                    32
# Number of atom types:                4
# Atom types:                         C  H  N  O
# Dielectric constant, electronic:   4.12153E+00
# Dielectric constant, ionic:        1.63687E+00
# Dielectric constant, total:        5.75840E+00
# Band gap at the GGA level (eV):    1.03590E+00
# Band gap at the HSE06 level (eV):  1.87450E+00
# Atomization energy (eV/atom):     -6.35645E+00
# Volume of the unit cell (A^3):     2.93044E+02
