# generated using pymatgen
data_H5C8S2NO
_symmetry_space_group_name_H-M   'P 1'
_cell_length_a   5.98880043
_cell_length_b   7.52764240
_cell_length_c   8.88954887
_cell_angle_alpha   93.46309013
_cell_angle_beta   106.42604950
_cell_angle_gamma   104.75283626
_symmetry_Int_Tables_number   1
_chemical_formula_structural   H5C8S2NO
_chemical_formula_sum   'H10 C16 S4 N2 O2'
_cell_volume   367.918493908
_cell_formula_units_Z   2
loop_
 _symmetry_equiv_pos_site_id
 _symmetry_equiv_pos_as_xyz
  1  'x, y, z'
loop_
 _atom_site_type_symbol
 _atom_site_label
 _atom_site_symmetry_multiplicity
 _atom_site_fract_x
 _atom_site_fract_y
 _atom_site_fract_z
 _atom_site_occupancy
  C  C1  1  0.219792  0.180725  0.366585  1
  C  C2  1  0.135436  0.069350  0.225625  1
  C  C3  1  0.953599  0.584132  0.751572  1
  C  C4  1  0.864377  0.474035  0.608759  1
  C  C5  1  0.477723  0.271299  0.417100  1
  C  C6  1  0.322246  0.063066  0.150681  1
  C  C7  1  0.607874  0.386012  0.557273  1
  C  C8  1  0.770957  0.591194  0.828248  1
  C  C9  1  0.242708  0.693461  0.384910  1
  C  C10  1  0.170549  0.585050  0.242657  1
  C  C11  1  0.943819  0.119286  0.784432  1
  C  C12  1  0.869365  0.006209  0.643986  1
  C  C13  1  0.498872  0.791213  0.445632  1
  C  C14  1  0.365351  0.588595  0.173449  1
  C  C15  1  0.615309  0.906184  0.587636  1
  C  C16  1  0.752521  0.116774  0.857055  1
  H  H17  1  0.948953  0.989168  0.168220  1
  H  H18  1  0.142230  0.657244  0.809778  1
  H  H19  1  0.107644  0.202734  0.438300  1
  H  H20  1  0.975957  0.450055  0.537242  1
  H  H21  1  0.126416  0.882020  0.977033  1
  H  H22  1  0.987948  0.501091  0.179010  1
  H  H23  1  0.124694  0.209000  0.843724  1
  H  H24  1  0.121441  0.710031  0.451167  1
  H  H25  1  0.989934  0.990805  0.576585  1
  H  H26  1  0.508298  0.525718  0.018747  1
  N  N27  1  0.302687  0.964407  0.022565  1
  N  N28  1  0.344967  0.497622  0.041620  1
  O  O29  1  0.798828  0.679924  0.957751  1
  O  O30  1  0.767899  0.207981  0.980687  1
  S  S31  1  0.610243  0.218421  0.272113  1
  S  S32  1  0.475378  0.444330  0.701068  1
  S  S33  1  0.648067  0.743702  0.308727  1
  S  S34  1  0.467878  0.948744  0.727762  1
 
# Source:                            Mannodi-Kanakkithodi_etal:SciRep.inpress(2016)                                  
# Class:                             organic_polymer_crystal                                                         
# Label:                             NH-C4H2S-C4H2S-O                                                                
# Structure prediction method used:  minima-hopping                                                                  
# Number of atoms:                    34
# Number of atom types:                5
# Atom types:                         C  H  N  O  S
# Dielectric constant, electronic:   4.85435E+00
# Dielectric constant, ionic:        1.40300E+00
# Dielectric constant, total:        6.25735E+00
# Band gap at the GGA level (eV):    9.77800E-01
# Band gap at the HSE06 level (eV):  1.69090E+00
# Atomization energy (eV/atom):     -6.08108E+00
# Volume of the unit cell (A^3):     3.67918E+02
