# generated using pymatgen
data_H3C4SN
_symmetry_space_group_name_H-M   'P 1'
_cell_length_a   4.05852514
_cell_length_b   8.42897024
_cell_length_c   11.23099724
_cell_angle_alpha   79.08861258
_cell_angle_beta   81.02756337
_cell_angle_gamma   84.03778995
_symmetry_Int_Tables_number   1
_chemical_formula_structural   H3C4SN
_chemical_formula_sum   'H12 C16 S4 N4'
_cell_volume   371.544496287
_cell_formula_units_Z   4
loop_
 _symmetry_equiv_pos_site_id
 _symmetry_equiv_pos_as_xyz
  1  'x, y, z'
loop_
 _atom_site_type_symbol
 _atom_site_label
 _atom_site_symmetry_multiplicity
 _atom_site_fract_x
 _atom_site_fract_y
 _atom_site_fract_z
 _atom_site_occupancy
  C  C1  1  0.124681  0.693589  0.375202  1
  C  C2  1  0.624873  0.693504  0.875320  1
  C  C3  1  0.749909  0.228201  0.540413  1
  C  C4  1  0.250463  0.228258  0.040474  1
  C  C5  1  0.208141  0.819334  0.273587  1
  C  C6  1  0.707996  0.819236  0.773658  1
  C  C7  1  0.542959  0.370875  0.503113  1
  C  C8  1  0.043519  0.370939  0.003181  1
  C  C9  1  0.367389  0.940312  0.303426  1
  C  C10  1  0.867195  0.940303  0.803400  1
  C  C11  1  0.426803  0.456547  0.596322  1
  C  C12  1  0.927381  0.456607  0.096395  1
  C  C13  1  0.222877  0.715743  0.482193  1
  C  C14  1  0.723248  0.715763  0.982254  1
  C  C15  1  0.790260  0.200331  0.661310  1
  C  C16  1  0.290793  0.200374  0.161373  1
  H  H17  1  0.996601  0.589110  0.370915  1
  H  H18  1  0.496923  0.588955  0.871101  1
  H  H19  1  0.872008  0.148191  0.479296  1
  H  H20  1  0.372550  0.148254  0.979352  1
  H  H21  1  0.153026  0.822287  0.181805  1
  H  H22  1  0.652643  0.822118  0.681917  1
  H  H23  1  0.479401  0.407179  0.411539  1
  H  H24  1  0.979955  0.407255  0.911608  1
  H  H25  1  0.156993  0.645358  0.671479  1
  H  H26  1  0.657694  0.645457  0.171549  1
  H  H27  1  0.196504  0.117495  0.750826  1
  H  H28  1  0.696875  0.117449  0.250975  1
  N  N29  1  0.226018  0.602621  0.591787  1
  N  N30  1  0.726684  0.602700  0.091865  1
  N  N31  1  0.991778  0.078471  0.726480  1
  N  N32  1  0.492188  0.078473  0.226563  1
  S  S33  1  0.407508  0.901711  0.460674  1
  S  S34  1  0.907705  0.901797  0.960613  1
  S  S35  1  0.567213  0.359242  0.733737  1
  S  S36  1  0.067718  0.359262  0.233811  1
 
# Source:                            Mannodi-Kanakkithodi_etal:SciRep.inpress(2016)                                  
# Class:                             organic_polymer_crystal                                                         
# Label:                             NH-C4H2S-NH-C4H2S                                                               
# Structure prediction method used:  minima-hopping                                                                  
# Number of atoms:                    36
# Number of atom types:                4
# Atom types:                         C  H  N  S
# Dielectric constant, electronic:   3.79418E+00
# Dielectric constant, ionic:        5.49299E-01
# Dielectric constant, total:        4.34348E+00
# Band gap at the GGA level (eV):    2.40490E+00
# Band gap at the HSE06 level (eV):  3.42080E+00
# Atomization energy (eV/atom):     -5.96040E+00
# Volume of the unit cell (A^3):     3.71544E+02
