# generated using pymatgen
data_H4C5(SN)2
_symmetry_space_group_name_H-M   'P 1'
_cell_length_a   5.70814504
_cell_length_b   6.09434670
_cell_length_c   8.97314055
_cell_angle_alpha   89.78833445
_cell_angle_beta   74.05299716
_cell_angle_gamma   77.43950840
_symmetry_Int_Tables_number   1
_chemical_formula_structural   H4C5(SN)2
_chemical_formula_sum   'H8 C10 S4 N4'
_cell_volume   292.433289059
_cell_formula_units_Z   2
loop_
 _symmetry_equiv_pos_site_id
 _symmetry_equiv_pos_as_xyz
  1  'x, y, z'
loop_
 _atom_site_type_symbol
 _atom_site_label
 _atom_site_symmetry_multiplicity
 _atom_site_fract_x
 _atom_site_fract_y
 _atom_site_fract_z
 _atom_site_occupancy
  C  C1  1  0.252091  0.109876  0.505723  1
  C  C2  1  0.252109  0.609860  0.005721  1
  C  C3  1  0.060610  0.014938  0.601110  1
  C  C4  1  0.060635  0.514910  0.101110  1
  C  C5  1  0.927152  0.929212  0.518510  1
  C  C6  1  0.927164  0.429202  0.018508  1
  C  C7  1  0.264325  0.095972  0.350946  1
  C  C8  1  0.264320  0.595983  0.850946  1
  C  C9  1  0.573247  0.811035  0.708033  1
  C  C10  1  0.573265  0.311017  0.208033  1
  H  H11  1  0.382787  0.175311  0.549455  1
  H  H12  1  0.382815  0.675282  0.049448  1
  H  H13  1  0.031913  0.001101  0.724316  1
  H  H14  1  0.031957  0.501053  0.224311  1
  H  H15  1  0.748014  0.682738  0.484042  1
  H  H16  1  0.748025  0.182726  0.984042  1
  H  H17  1  0.481373  0.038439  0.123754  1
  H  H18  1  0.481358  0.538454  0.623752  1
  N  N19  1  0.749111  0.798083  0.566487  1
  N  N20  1  0.749129  0.298069  0.066487  1
  N  N21  1  0.446486  0.140922  0.221227  1
  N  N22  1  0.446468  0.640941  0.721225  1
  S  S23  1  0.024993  0.978636  0.320510  1
  S  S24  1  0.024969  0.478657  0.820517  1
  S  S25  1  0.508227  0.020946  0.845732  1
  S  S26  1  0.508245  0.520933  0.345731  1
 
# Source:                            Mannodi-Kanakkithodi_etal:SciRep.inpress(2016)                                  
# Class:                             organic_polymer_crystal                                                         
# Label:                             NH-C4H2S-NH-CS                                                                  
# Structure prediction method used:  minima-hopping                                                                  
# Number of atoms:                    26
# Number of atom types:                4
# Atom types:                         C  H  N  S
# Dielectric constant, electronic:   4.79713E+00
# Dielectric constant, ionic:        9.23638E-01
# Dielectric constant, total:        5.72077E+00
# Band gap at the GGA level (eV):    1.31630E+00
# Band gap at the HSE06 level (eV):  2.15380E+00
# Atomization energy (eV/atom):     -5.88820E+00
# Volume of the unit cell (A^3):     2.92433E+02
