# generated using pymatgen
data_H9C14S2N
_symmetry_space_group_name_H-M   'P 1'
_cell_length_a   5.95571993
_cell_length_b   6.84812917
_cell_length_c   12.90673353
_cell_angle_alpha   92.38663199
_cell_angle_beta   95.76260567
_cell_angle_gamma   92.80508095
_symmetry_Int_Tables_number   1
_chemical_formula_structural   H9C14S2N
_chemical_formula_sum   'H18 C28 S4 N2'
_cell_volume   522.54591334
_cell_formula_units_Z   2
loop_
 _symmetry_equiv_pos_site_id
 _symmetry_equiv_pos_as_xyz
  1  'x, y, z'
loop_
 _atom_site_type_symbol
 _atom_site_label
 _atom_site_symmetry_multiplicity
 _atom_site_fract_x
 _atom_site_fract_y
 _atom_site_fract_z
 _atom_site_occupancy
  C  C1  1  0.007286  0.081775  0.950510  1
  C  C2  1  0.013377  0.141422  0.846114  1
  C  C3  1  0.515049  0.286050  0.660826  1
  C  C4  1  0.483625  0.290140  0.551459  1
  C  C5  1  0.808605  0.122588  0.991333  1
  C  C6  1  0.817381  0.225293  0.805906  1
  C  C7  1  0.680681  0.277853  0.503414  1
  C  C8  1  0.738405  0.267856  0.700329  1
  C  C9  1  0.901307  0.229613  0.236159  1
  C  C10  1  0.892487  0.284070  0.341358  1
  C  C11  1  0.710713  0.135735  0.178391  1
  C  C12  1  0.695692  0.247034  0.391626  1
  C  C13  1  0.509579  0.110936  0.225854  1
  C  C14  1  0.502448  0.163819  0.329964  1
  C  C15  1  0.522405  0.712014  0.886836  1
  C  C16  1  0.518478  0.782950  0.784381  1
  C  C17  1  0.020892  0.799007  0.572541  1
  C  C18  1  0.998643  0.791666  0.462563  1
  C  C19  1  0.316670  0.628616  0.907809  1
  C  C20  1  0.311192  0.755134  0.725716  1
  C  C21  1  0.199588  0.764250  0.419390  1
  C  C22  1  0.240194  0.781336  0.617090  1
  C  C23  1  0.445503  0.595711  0.172446  1
  C  C24  1  0.429070  0.650742  0.276739  1
  C  C25  1  0.259830  0.609857  0.098084  1
  C  C26  1  0.228412  0.722828  0.309604  1
  C  C27  1  0.061490  0.686661  0.129027  1
  C  C28  1  0.046186  0.743575  0.232622  1
  H  H29  1  0.360023  0.043418  0.180650  1
  H  H30  1  0.151036  0.110315  0.800228  1
  H  H31  1  0.377718  0.289365  0.709725  1
  H  H32  1  0.138160  0.001020  0.991255  1
  H  H33  1  0.319597  0.298484  0.508397  1
  H  H34  1  0.562425  0.971165  0.054893  1
  H  H35  1  0.041233  0.356004  0.384980  1
  H  H36  1  0.056362  0.255784  0.200090  1
  H  H37  1  0.347440  0.133851  0.364962  1
  H  H38  1  0.917479  0.699177  0.071684  1
  H  H39  1  0.666417  0.848451  0.754398  1
  H  H40  1  0.880138  0.814664  0.618563  1
  H  H41  1  0.674261  0.712338  0.940398  1
  H  H42  1  0.838558  0.802865  0.416293  1
  H  H43  1  0.118882  0.433792  0.974956  1
  H  H44  1  0.570831  0.628322  0.333773  1
  H  H45  1  0.597563  0.532273  0.149807  1
  H  H46  1  0.890752  0.802004  0.253901  1
  N  N47  1  0.712660  0.045882  0.077905  1
  N  N48  1  0.259081  0.524234  0.993637  1
  S  S49  1  0.114235  0.641079  0.799878  1
  S  S50  1  0.422329  0.757618  0.519205  1
  S  S51  1  0.630996  0.247299  0.902172  1
  S  S52  1  0.912115  0.268153  0.598094  1
 
# Source:                            Mannodi-Kanakkithodi_etal:SciRep.inpress(2016)                                  
# Class:                             organic_polymer_crystal                                                         
# Label:                             NH-C6H4-C4H2S-C4H2S                                                             
# Structure prediction method used:  minima-hopping                                                                  
# Number of atoms:                    52
# Number of atom types:                4
# Atom types:                         C  H  N  S
# Dielectric constant, electronic:   4.40245E+00
# Dielectric constant, ionic:        3.71705E-01
# Dielectric constant, total:        4.77416E+00
# Band gap at the GGA level (eV):    1.82410E+00
# Band gap at the HSE06 level (eV):  2.58700E+00
# Atomization energy (eV/atom):     -6.17688E+00
# Volume of the unit cell (A^3):     5.22546E+02
