# generated using pymatgen
data_H11C16SN
_symmetry_space_group_name_H-M   'P 1'
_cell_length_a   3.63442005
_cell_length_b   5.40685718
_cell_length_c   13.43913111
_cell_angle_alpha   88.99696933
_cell_angle_beta   88.61815042
_cell_angle_gamma   87.71507062
_symmetry_Int_Tables_number   1
_chemical_formula_structural   H11C16SN
_chemical_formula_sum   'H11 C16 S1 N1'
_cell_volume   263.766648014
_cell_formula_units_Z   1
loop_
 _symmetry_equiv_pos_site_id
 _symmetry_equiv_pos_as_xyz
  1  'x, y, z'
loop_
 _atom_site_type_symbol
 _atom_site_label
 _atom_site_symmetry_multiplicity
 _atom_site_fract_x
 _atom_site_fract_y
 _atom_site_fract_z
 _atom_site_occupancy
  C  C1  1  0.854914  0.658584  0.240395  1
  C  C2  1  0.807772  0.719915  0.793820  1
  C  C3  1  0.813467  0.722346  0.141262  1
  C  C4  1  0.849185  0.656116  0.695075  1
  C  C5  1  0.023758  0.429335  0.269509  1
  C  C6  1  0.935035  0.561350  0.871376  1
  C  C7  1  0.066344  0.359613  0.562858  1
  C  C8  1  0.938369  0.562895  0.064348  1
  C  C9  1  0.019809  0.427372  0.667007  1
  C  C10  1  0.069412  0.361095  0.373987  1
  C  C11  1  0.147661  0.271253  0.192556  1
  C  C12  1  0.104799  0.332308  0.844720  1
  C  C13  1  0.222756  0.146005  0.521458  1
  C  C14  1  0.108038  0.333920  0.092088  1
  C  C15  1  0.144756  0.269715  0.744593  1
  C  C16  1  0.224806  0.146978  0.416181  1
  H  H17  1  0.279936  0.094305  0.211358  1
  H  H18  1  0.211908  0.203089  0.900126  1
  H  H19  1  0.334155  0.992222  0.565306  1
  H  H20  1  0.683183  0.899761  0.121235  1
  H  H21  1  0.749451  0.786007  0.638472  1
  H  H22  1  0.756436  0.788960  0.296459  1
  H  H23  1  0.676830  0.897079  0.813045  1
  H  H24  1  0.213471  0.204117  0.037124  1
  H  H25  1  0.278435  0.093276  0.726521  1
  H  H26  1  0.337476  0.993786  0.372934  1
  H  H27  1  0.740370  0.820387  0.967186  1
  N  N28  1  0.880715  0.654289  0.967518  1
  S  S29  1  0.920224  0.564066  0.468035  1
 
# Source:                            Mannodi-Kanakkithodi_etal:SciRep.inpress(2016)                                  
# Class:                             organic_polymer_crystal                                                         
# Label:                             NH-C6H4-C4H2S-C6H4                                                              
# Structure prediction method used:  minima-hopping                                                                  
# Number of atoms:                    29
# Number of atom types:                4
# Atom types:                         C  H  N  S
# Dielectric constant, electronic:   5.49950E+00
# Dielectric constant, ionic:        4.13100E-01
# Dielectric constant, total:        5.91260E+00
# Band gap at the GGA level (eV):    1.22050E+00
# Band gap at the HSE06 level (eV):  1.81630E+00
# Atomization energy (eV/atom):     -6.26244E+00
# Volume of the unit cell (A^3):     2.63767E+02
