# generated using pymatgen
data_H11C13N
_symmetry_space_group_name_H-M   'P 1'
_cell_length_a   3.71724330
_cell_length_b   6.30501092
_cell_length_c   10.89779265
_cell_angle_alpha   108.74745045
_cell_angle_beta   110.27774288
_cell_angle_gamma   107.26291202
_symmetry_Int_Tables_number   1
_chemical_formula_structural   H11C13N
_chemical_formula_sum   'H11 C13 N1'
_cell_volume   201.505246005
_cell_formula_units_Z   1
loop_
 _symmetry_equiv_pos_site_id
 _symmetry_equiv_pos_as_xyz
  1  'x, y, z'
loop_
 _atom_site_type_symbol
 _atom_site_label
 _atom_site_symmetry_multiplicity
 _atom_site_fract_x
 _atom_site_fract_y
 _atom_site_fract_z
 _atom_site_occupancy
  C  C1  1  0.598188  0.683626  0.083748  1
  C  C2  1  0.504262  0.305666  0.285614  1
  C  C3  1  0.476259  0.377041  0.694148  1
  C  C4  1  0.523150  0.333564  0.419690  1
  C  C5  1  0.485360  0.403248  0.827748  1
  C  C6  1  0.524281  0.499441  0.246472  1
  C  C7  1  0.570859  0.582062  0.664234  1
  C  C8  1  0.584461  0.635840  0.936663  1
  C  C9  1  0.563104  0.555332  0.522910  1
  C  C10  1  0.576732  0.724505  0.350105  1
  C  C11  1  0.670352  0.815711  0.775349  1
  C  C12  1  0.593818  0.749532  0.484076  1
  C  C13  1  0.676495  0.841320  0.907559  1
  H  H14  1  0.607717  0.881963  0.327534  1
  H  H15  1  0.743775  0.980914  0.759318  1
  H  H16  1  0.918351  0.834751  0.174784  1
  H  H17  1  0.370363  0.757897  0.089974  1
  H  H18  1  0.595680  0.342662  0.067280  1
  H  H19  1  0.410111  0.238329  0.844352  1
  H  H20  1  0.512976  0.180761  0.445681  1
  H  H21  1  0.486848  0.135935  0.210703  1
  H  H22  1  0.387788  0.191451  0.612084  1
  H  H23  1  0.757318  0.025193  0.990277  1
  H  H24  1  0.627279  0.925274  0.558400  1
  N  N25  1  0.482983  0.462153  0.107016  1
 
# Source:                            Mannodi-Kanakkithodi_etal:SciRep.inpress(2016)                                  
# Class:                             organic_polymer_crystal                                                         
# Label:                             NH-C6H4-C6H4-CH2                                                                
# Structure prediction method used:  minima-hopping                                                                  
# Number of atoms:                    25
# Number of atom types:                3
# Atom types:                         C  H  N
# Dielectric constant, electronic:   3.80246E+00
# Dielectric constant, ionic:        4.86909E-01
# Dielectric constant, total:        4.28937E+00
# Band gap at the GGA level (eV):    2.66970E+00
# Band gap at the HSE06 level (eV):  3.49710E+00
# Atomization energy (eV/atom):     -6.15091E+00
# Volume of the unit cell (A^3):     2.01505E+02
