# generated using pymatgen
data_H9C13SN
_symmetry_space_group_name_H-M   'P 1'
_cell_length_a   3.62962532
_cell_length_b   6.03261015
_cell_length_c   10.86590587
_cell_angle_alpha   90.17746832
_cell_angle_beta   99.17802124
_cell_angle_gamma   107.13824058
_symmetry_Int_Tables_number   1
_chemical_formula_structural   H9C13SN
_chemical_formula_sum   'H9 C13 S1 N1'
_cell_volume   224.129140211
_cell_formula_units_Z   1
loop_
 _symmetry_equiv_pos_site_id
 _symmetry_equiv_pos_as_xyz
  1  'x, y, z'
loop_
 _atom_site_type_symbol
 _atom_site_label
 _atom_site_symmetry_multiplicity
 _atom_site_fract_x
 _atom_site_fract_y
 _atom_site_fract_z
 _atom_site_occupancy
  C  C1  1  0.218675  0.656154  0.782587  1
  C  C2  1  0.632011  0.658740  0.405595  1
  C  C3  1  0.067936  0.655901  0.656849  1
  C  C4  1  0.559558  0.694559  0.279565  1
  C  C5  1  0.185811  0.444829  0.840259  1
  C  C6  1  0.736863  0.461535  0.448714  1
  C  C7  1  0.877964  0.449118  0.583220  1
  C  C8  1  0.575798  0.530243  0.189938  1
  C  C9  1  0.553934  0.595513  0.057503  1
  C  C10  1  0.997098  0.235651  0.768620  1
  C  C11  1  0.729938  0.291610  0.358760  1
  C  C12  1  0.845638  0.238848  0.642670  1
  C  C13  1  0.645894  0.323496  0.230958  1
  H  H14  1  0.964158  0.071226  0.812412  1
  H  H15  1  0.821765  0.141779  0.387950  1
  H  H16  1  0.179928  0.276859  0.005244  1
  H  H17  1  0.104843  0.822200  0.614911  1
  H  H18  1  0.480214  0.846700  0.248136  1
  H  H19  1  0.359528  0.818505  0.835381  1
  H  H20  1  0.605435  0.784506  0.472256  1
  H  H21  1  0.694338  0.075190  0.590521  1
  H  H22  1  0.663687  0.194154  0.164346  1
  N  N23  1  0.313388  0.431139  0.970482  1
  S  S24  1  0.838896  0.858439  0.029245  1
 
# Source:                            Mannodi-Kanakkithodi_etal:SciRep.inpress(2016)                                  
# Class:                             organic_polymer_crystal                                                         
# Label:                             NH-C6H4-C6H4-CS                                                                 
# Structure prediction method used:  minima-hopping                                                                  
# Number of atoms:                    24
# Number of atom types:                4
# Atom types:                         C  H  N  S
# Dielectric constant, electronic:   4.41129E+00
# Dielectric constant, ionic:        4.19062E-01
# Dielectric constant, total:        4.83035E+00
# Band gap at the GGA level (eV):    1.49110E+00
# Band gap at the HSE06 level (eV):  2.32550E+00
# Atomization energy (eV/atom):     -6.25353E+00
# Volume of the unit cell (A^3):     2.24129E+02
