# generated using pymatgen
data_H9C12NO
_symmetry_space_group_name_H-M   'P 1'
_cell_length_a   3.56203610
_cell_length_b   6.15508190
_cell_length_c   9.20870931
_cell_angle_alpha   95.15558030
_cell_angle_beta   100.76754520
_cell_angle_gamma   106.48518702
_symmetry_Int_Tables_number   1
_chemical_formula_structural   H9C12NO
_chemical_formula_sum   'H9 C12 N1 O1'
_cell_volume   187.989192584
_cell_formula_units_Z   1
loop_
 _symmetry_equiv_pos_site_id
 _symmetry_equiv_pos_as_xyz
  1  'x, y, z'
loop_
 _atom_site_type_symbol
 _atom_site_label
 _atom_site_symmetry_multiplicity
 _atom_site_fract_x
 _atom_site_fract_y
 _atom_site_fract_z
 _atom_site_occupancy
  C  C1  1  0.769914  0.597552  0.236084  1
  C  C2  1  0.560322  0.940515  0.669938  1
  C  C3  1  0.028454  0.707148  0.372951  1
  C  C4  1  0.812568  0.050665  0.806798  1
  C  C5  1  0.632642  0.728083  0.134393  1
  C  C6  1  0.438000  0.063156  0.557577  1
  C  C7  1  0.162539  0.946860  0.412315  1
  C  C8  1  0.950387  0.290050  0.836710  1
  C  C9  1  0.759869  0.968120  0.170679  1
  C  C10  1  0.590344  0.303276  0.590383  1
  C  C11  1  0.020314  0.073337  0.306357  1
  C  C12  1  0.840794  0.417129  0.727339  1
  H  H13  1  0.651359  0.071428  0.093478  1
  H  H14  1  0.516650  0.407868  0.508054  1
  H  H15  1  0.151679  0.703999  0.972630  1
  H  H16  1  0.127210  0.601124  0.449655  1
  H  H17  1  0.902251  0.952520  0.890924  1
  H  H18  1  0.671228  0.412896  0.209128  1
  H  H19  1  0.459240  0.755194  0.651616  1
  H  H20  1  0.110271  0.258217  0.329564  1
  H  H21  1  0.948641  0.601929  0.745479  1
  N  N22  1  0.383892  0.634649  0.988750  1
  O  O23  1  0.185771  0.385805  0.980119  1
 
# Source:                            Mannodi-Kanakkithodi_etal:SciRep.inpress(2016)                                  
# Class:                             organic_polymer_crystal                                                         
# Label:                             NH-C6H4-C6H4-O                                                                  
# Structure prediction method used:  minima-hopping                                                                  
# Number of atoms:                    23
# Number of atom types:                4
# Atom types:                         C  H  N  O
# Dielectric constant, electronic:   3.93697E+00
# Dielectric constant, ionic:        4.75791E-01
# Dielectric constant, total:        4.41276E+00
# Band gap at the GGA level (eV):    2.50920E+00
# Band gap at the HSE06 level (eV):  3.45850E+00
# Atomization energy (eV/atom):     -6.20889E+00
# Volume of the unit cell (A^3):     1.87989E+02
