# generated using pymatgen
data_H8C10SN2
_symmetry_space_group_name_H-M   'P 1'
_cell_length_a   5.52457640
_cell_length_b   6.79884362
_cell_length_c   10.91066288
_cell_angle_alpha   102.37556558
_cell_angle_beta   98.75416991
_cell_angle_gamma   99.76435394
_symmetry_Int_Tables_number   1
_chemical_formula_structural   H8C10SN2
_chemical_formula_sum   'H16 C20 S2 N4'
_cell_volume   386.85021164
_cell_formula_units_Z   2
loop_
 _symmetry_equiv_pos_site_id
 _symmetry_equiv_pos_as_xyz
  1  'x, y, z'
loop_
 _atom_site_type_symbol
 _atom_site_label
 _atom_site_symmetry_multiplicity
 _atom_site_fract_x
 _atom_site_fract_y
 _atom_site_fract_z
 _atom_site_occupancy
  C  C1  1  0.233346  0.196679  0.763078  1
  C  C2  1  0.733320  0.196675  0.263069  1
  C  C3  1  0.193917  0.316481  0.672900  1
  C  C4  1  0.693913  0.316486  0.172892  1
  C  C5  1  0.414136  0.083647  0.743082  1
  C  C6  1  0.914110  0.083643  0.243081  1
  C  C7  1  0.343391  0.299580  0.583658  1
  C  C8  1  0.843402  0.299590  0.083658  1
  C  C9  1  0.898296  0.742832  0.467122  1
  C  C10  1  0.398329  0.742832  0.967121  1
  C  C11  1  0.733685  0.601143  0.507551  1
  C  C12  1  0.233715  0.601146  0.007549  1
  C  C13  1  0.813998  0.823320  0.363948  1
  C  C14  1  0.314031  0.823321  0.863948  1
  C  C15  1  0.480893  0.537773  0.447416  1
  C  C16  1  0.980921  0.537778  0.947417  1
  C  C17  1  0.556419  0.770024  0.309806  1
  C  C18  1  0.056456  0.770027  0.809804  1
  C  C19  1  0.393373  0.628901  0.349896  1
  C  C20  1  0.893407  0.628909  0.849895  1
  H  H21  1  0.484284  0.833109  0.232407  1
  H  H22  1  0.984322  0.833110  0.732406  1
  H  H23  1  0.059455  0.413936  0.674316  1
  H  H24  1  0.559452  0.413943  0.174306  1
  H  H25  1  0.130772  0.193154  0.839687  1
  H  H26  1  0.630729  0.193150  0.339673  1
  H  H27  1  0.132809  0.365125  0.433377  1
  H  H28  1  0.632837  0.365133  0.933373  1
  H  H29  1  0.169510  0.965990  0.351508  1
  H  H30  1  0.669545  0.966003  0.851513  1
  H  H31  1  0.802637  0.535751  0.584389  1
  H  H32  1  0.302665  0.535750  0.084387  1
  H  H33  1  0.094006  0.787264  0.514155  1
  H  H34  1  0.594037  0.787261  0.014155  1
  H  H35  1  0.197669  0.584205  0.302495  1
  H  H36  1  0.697701  0.584213  0.802494  1
  N  N37  1  0.314825  0.378054  0.474208  1
  N  N38  1  0.814847  0.378062  0.974209  1
  N  N39  1  0.985959  0.942613  0.310563  1
  N  N40  1  0.485992  0.942615  0.810565  1
  S  S41  1  0.537810  0.120591  0.607212  1
  S  S42  1  0.037811  0.120594  0.107218  1
 
# Source:                            Mannodi-Kanakkithodi_etal:SciRep.inpress(2016)                                  
# Class:                             organic_polymer_crystal                                                         
# Label:                             NH-C6H4-NH-C4H2S                                                                
# Structure prediction method used:  minima-hopping                                                                  
# Number of atoms:                    42
# Number of atom types:                4
# Atom types:                         C  H  N  S
# Dielectric constant, electronic:   3.95605E+00
# Dielectric constant, ionic:        1.03657E+00
# Dielectric constant, total:        4.99262E+00
# Band gap at the GGA level (eV):    1.91770E+00
# Band gap at the HSE06 level (eV):  2.83740E+00
# Atomization energy (eV/atom):     -6.10774E+00
# Volume of the unit cell (A^3):     3.86850E+02
