# generated using pymatgen
data_H5C6N
_symmetry_space_group_name_H-M   'P 1'
_cell_length_a   3.63604551
_cell_length_b   8.57431403
_cell_length_c   12.78405924
_cell_angle_alpha   82.76147822
_cell_angle_beta   77.68960561
_cell_angle_gamma   93.72236577
_symmetry_Int_Tables_number   1
_chemical_formula_structural   H5C6N
_chemical_formula_sum   'H20 C24 N4'
_cell_volume   384.559713832
_cell_formula_units_Z   4
loop_
 _symmetry_equiv_pos_site_id
 _symmetry_equiv_pos_as_xyz
  1  'x, y, z'
loop_
 _atom_site_type_symbol
 _atom_site_label
 _atom_site_symmetry_multiplicity
 _atom_site_fract_x
 _atom_site_fract_y
 _atom_site_fract_z
 _atom_site_occupancy
  C  C1  1  0.458766  0.879954  0.724651  1
  C  C2  1  0.958744  0.879950  0.224650  1
  C  C3  1  0.623332  0.260795  0.993116  1
  C  C4  1  0.123318  0.260796  0.493117  1
  C  C5  1  0.563273  0.731699  0.757818  1
  C  C6  1  0.063214  0.731689  0.257823  1
  C  C7  1  0.647212  0.159776  0.085138  1
  C  C8  1  0.147206  0.159777  0.585140  1
  C  C9  1  0.307290  0.976133  0.801364  1
  C  C10  1  0.807375  0.976147  0.301362  1
  C  C11  1  0.638186  0.425978  0.989534  1
  C  C12  1  0.138210  0.425979  0.489533  1
  C  C13  1  0.520243  0.670663  0.867658  1
  C  C14  1  0.020326  0.670675  0.367658  1
  C  C15  1  0.689508  0.220839  0.179486  1
  C  C16  1  0.189524  0.220838  0.679484  1
  C  C17  1  0.264498  0.915134  0.911200  1
  C  C18  1  0.764449  0.915128  0.411204  1
  C  C19  1  0.680456  0.487050  0.083879  1
  C  C20  1  0.180448  0.487050  0.583878  1
  C  C21  1  0.368932  0.766874  0.944370  1
  C  C22  1  0.868909  0.766872  0.444370  1
  C  C23  1  0.704343  0.386023  0.175901  1
  C  C24  1  0.204340  0.386023  0.675899  1
  H  H25  1  0.144004  0.986089  0.971897  1
  H  H26  1  0.644024  0.986097  0.471899  1
  H  H27  1  0.709896  0.612766  0.085188  1
  H  H28  1  0.209906  0.612762  0.585191  1
  H  H29  1  0.683647  0.660727  0.697126  1
  H  H30  1  0.183657  0.660734  0.197127  1
  H  H31  1  0.617774  0.034066  0.083827  1
  H  H32  1  0.117776  0.034069  0.583823  1
  H  H33  1  0.503234  0.919991  0.639171  1
  H  H34  1  0.003240  0.919997  0.139169  1
  H  H35  1  0.583959  0.209993  0.922314  1
  H  H36  1  0.083962  0.209996  0.422311  1
  H  H37  1  0.324394  0.726827  0.029846  1
  H  H38  1  0.824413  0.726834  0.529844  1
  H  H39  1  0.743703  0.436822  0.246699  1
  H  H40  1  0.243711  0.436816  0.746700  1
  H  H41  1  0.685123  0.459930  0.826393  1
  H  H42  1  0.185111  0.459931  0.326396  1
  H  H43  1  0.642502  0.186893  0.342628  1
  H  H44  1  0.142507  0.186891  0.842627  1
  N  N45  1  0.706388  0.129843  0.277323  1
  N  N46  1  0.206401  0.129842  0.777321  1
  N  N47  1  0.621256  0.516974  0.891702  1
  N  N48  1  0.121236  0.516974  0.391706  1
 
# Source:                            Mannodi-Kanakkithodi_etal:SciRep.inpress(2016)                                  
# Class:                             organic_polymer_crystal                                                         
# Label:                             NH-C6H4-NH-C6H4                                                                 
# Structure prediction method used:  minima-hopping                                                                  
# Number of atoms:                    48
# Number of atom types:                3
# Atom types:                         C  H  N
# Dielectric constant, electronic:   4.51131E+00
# Dielectric constant, ionic:        9.58638E-01
# Dielectric constant, total:        5.46995E+00
# Band gap at the GGA level (eV):    1.51650E+00
# Band gap at the HSE06 level (eV):  2.36030E+00
# Atomization energy (eV/atom):     -6.21395E+00
# Volume of the unit cell (A^3):     3.84560E+02
