# generated using pymatgen
data_H6C6N2O
_symmetry_space_group_name_H-M   'P 1'
_cell_length_a   5.29836153
_cell_length_b   5.49919223
_cell_length_c   9.27836084
_cell_angle_alpha   80.37751755
_cell_angle_beta   78.54770687
_cell_angle_gamma   73.87858533
_symmetry_Int_Tables_number   1
_chemical_formula_structural   H6C6N2O
_chemical_formula_sum   'H12 C12 N4 O2'
_cell_volume   252.731131208
_cell_formula_units_Z   2
loop_
 _symmetry_equiv_pos_site_id
 _symmetry_equiv_pos_as_xyz
  1  'x, y, z'
loop_
 _atom_site_type_symbol
 _atom_site_label
 _atom_site_symmetry_multiplicity
 _atom_site_fract_x
 _atom_site_fract_y
 _atom_site_fract_z
 _atom_site_occupancy
  C  C1  1  0.583531  0.919544  0.881763  1
  C  C2  1  0.583538  0.419531  0.381760  1
  C  C3  1  0.390698  0.788574  0.946460  1
  C  C4  1  0.390689  0.288571  0.446468  1
  C  C5  1  0.607137  0.120431  0.947675  1
  C  C6  1  0.607143  0.620419  0.447669  1
  C  C7  1  0.214171  0.861501  0.074122  1
  C  C8  1  0.214170  0.361509  0.574126  1
  C  C9  1  0.436081  0.188922  0.079410  1
  C  C10  1  0.436094  0.688923  0.579402  1
  C  C11  1  0.239507  0.062657  0.141229  1
  C  C12  1  0.239504  0.562665  0.641233  1
  H  H13  1  0.460129  0.339094  0.133274  1
  H  H14  1  0.460149  0.839102  0.633266  1
  H  H15  1  0.880269  0.310122  0.961467  1
  H  H16  1  0.880291  0.810098  0.461454  1
  H  H17  1  0.012360  0.598869  0.074983  1
  H  H18  1  0.012347  0.098879  0.574998  1
  H  H19  1  0.375198  0.632588  0.894583  1
  H  H20  1  0.375185  0.132576  0.394591  1
  H  H21  1  0.717284  0.862414  0.782206  1
  H  H22  1  0.717274  0.362395  0.282212  1
  H  H23  1  0.106513  0.117450  0.241894  1
  H  H24  1  0.106529  0.617466  0.741888  1
  N  N25  1  0.793374  0.266248  0.883512  1
  N  N26  1  0.793384  0.766231  0.383501  1
  N  N27  1  0.994533  0.751994  0.129117  1
  N  N28  1  0.994527  0.252009  0.629128  1
  O  O29  1  0.015358  0.127521  0.785473  1
  O  O30  1  0.015362  0.627498  0.285461  1
 
# Source:                            Mannodi-Kanakkithodi_etal:SciRep.inpress(2016)                                  
# Class:                             organic_polymer_crystal                                                         
# Label:                             NH-C6H4-NH-O                                                                    
# Structure prediction method used:  minima-hopping                                                                  
# Number of atoms:                    30
# Number of atom types:                4
# Atom types:                         C  H  N  O
# Dielectric constant, electronic:   3.55557E+00
# Dielectric constant, ionic:        6.54935E-01
# Dielectric constant, total:        4.21051E+00
# Band gap at the GGA level (eV):    2.55400E+00
# Band gap at the HSE06 level (eV):  3.62750E+00
# Atomization energy (eV/atom):     -5.91291E+00
# Volume of the unit cell (A^3):     2.52731E+02
