# generated using pymatgen
data_H7C10SNO
_symmetry_space_group_name_H-M   'P 1'
_cell_length_a   5.31635306
_cell_length_b   6.92861345
_cell_length_c   10.82071697
_cell_angle_alpha   100.48693405
_cell_angle_beta   97.23265083
_cell_angle_gamma   100.25444541
_symmetry_Int_Tables_number   1
_chemical_formula_structural   H7C10SNO
_chemical_formula_sum   'H14 C20 S2 N2 O2'
_cell_volume   380.466391548
_cell_formula_units_Z   2
loop_
 _symmetry_equiv_pos_site_id
 _symmetry_equiv_pos_as_xyz
  1  'x, y, z'
loop_
 _atom_site_type_symbol
 _atom_site_label
 _atom_site_symmetry_multiplicity
 _atom_site_fract_x
 _atom_site_fract_y
 _atom_site_fract_z
 _atom_site_occupancy
  C  C1  1  0.956828  0.067095  0.128466  1
  C  C2  1  0.456829  0.067094  0.628466  1
  C  C3  1  0.917679  0.186843  0.036802  1
  C  C4  1  0.417679  0.186840  0.536802  1
  C  C5  1  0.814747  0.091824  0.224964  1
  C  C6  1  0.314750  0.091824  0.724965  1
  C  C7  1  0.741924  0.304356  0.064794  1
  C  C8  1  0.241926  0.304355  0.564794  1
  C  C9  1  0.920690  0.781838  0.801402  1
  C  C10  1  0.420687  0.781837  0.301402  1
  C  C11  1  0.752733  0.636604  0.842675  1
  C  C12  1  0.252731  0.636603  0.342675  1
  C  C13  1  0.178444  0.850201  0.862936  1
  C  C14  1  0.678442  0.850200  0.362936  1
  C  C15  1  0.842372  0.559585  0.946246  1
  C  C16  1  0.342372  0.559584  0.446245  1
  C  C17  1  0.269124  0.760077  0.961513  1
  C  C18  1  0.769123  0.760076  0.461512  1
  C  C19  1  0.102772  0.615152  0.002636  1
  C  C20  1  0.602773  0.615151  0.502636  1
  H  H21  1  0.469357  0.807211  0.008324  1
  H  H22  1  0.969356  0.807210  0.508322  1
  H  H23  1  0.021276  0.190839  0.957256  1
  H  H24  1  0.521276  0.190837  0.457256  1
  H  H25  1  0.588243  0.965527  0.623714  1
  H  H26  1  0.088241  0.965528  0.123714  1
  H  H27  1  0.027217  0.043955  0.384383  1
  H  H28  1  0.527220  0.043954  0.884383  1
  H  H29  1  0.552157  0.587489  0.797387  1
  H  H30  1  0.052154  0.587487  0.297387  1
  H  H31  1  0.850313  0.847029  0.723924  1
  H  H32  1  0.350309  0.847029  0.223924  1
  H  H33  1  0.177221  0.549447  0.078989  1
  H  H34  1  0.677222  0.549445  0.578988  1
  N  N35  1  0.344237  0.011693  0.834783  1
  N  N36  1  0.844235  0.011693  0.334783  1
  O  O37  1  0.653252  0.434495  0.995537  1
  O  O38  1  0.153253  0.434493  0.495536  1
  S  S39  1  0.622217  0.274982  0.205382  1
  S  S40  1  0.122219  0.274982  0.705382  1
 
# Source:                            Mannodi-Kanakkithodi_etal:SciRep.inpress(2016)                                  
# Class:                             organic_polymer_crystal                                                         
# Label:                             NH-C6H4-O-C4H2S                                                                 
# Structure prediction method used:  minima-hopping                                                                  
# Number of atoms:                    40
# Number of atom types:                5
# Atom types:                         C  H  N  O  S
# Dielectric constant, electronic:   3.63804E+00
# Dielectric constant, ionic:        5.09110E-01
# Dielectric constant, total:        4.14715E+00
# Band gap at the GGA level (eV):    2.40130E+00
# Band gap at the HSE06 level (eV):  3.41380E+00
# Atomization energy (eV/atom):     -6.14462E+00
# Volume of the unit cell (A^3):     3.80466E+02
