# generated using pymatgen
data_H3C5SNO2
_symmetry_space_group_name_H-M   'P 1'
_cell_length_a   4.97338807
_cell_length_b   6.28138348
_cell_length_c   8.09758819
_cell_angle_alpha   94.86843658
_cell_angle_beta   97.47057289
_cell_angle_gamma   101.24615937
_symmetry_Int_Tables_number   1
_chemical_formula_structural   H3C5SNO2
_chemical_formula_sum   'H6 C10 S2 N2 O4'
_cell_volume   244.417997394
_cell_formula_units_Z   2
loop_
 _symmetry_equiv_pos_site_id
 _symmetry_equiv_pos_as_xyz
  1  'x, y, z'
loop_
 _atom_site_type_symbol
 _atom_site_label
 _atom_site_symmetry_multiplicity
 _atom_site_fract_x
 _atom_site_fract_y
 _atom_site_fract_z
 _atom_site_occupancy
  C  C1  1  0.207317  0.677489  0.148321  1
  C  C2  1  0.207364  0.677471  0.648306  1
  C  C3  1  0.174672  0.461404  0.069733  1
  C  C4  1  0.174665  0.461382  0.569716  1
  C  C5  1  0.936747  0.395702  0.953192  1
  C  C6  1  0.936717  0.395702  0.453189  1
  C  C7  1  0.990189  0.770421  0.089628  1
  C  C8  1  0.990258  0.770431  0.589629  1
  C  C9  1  0.832557  0.205109  0.830062  1
  C  C10  1  0.832490  0.205118  0.330060  1
  H  H11  1  0.379640  0.763139  0.240016  1
  H  H12  1  0.379710  0.763108  0.739986  1
  H  H13  1  0.321212  0.358152  0.097784  1
  H  H14  1  0.321190  0.358108  0.597750  1
  H  H15  1  0.227956  0.146921  0.811572  1
  H  H16  1  0.227871  0.146907  0.311542  1
  N  N17  1  0.020175  0.075401  0.794230  1
  N  N18  1  0.020086  0.075397  0.294212  1
  O  O19  1  0.945198  0.977552  0.119819  1
  O  O20  1  0.945335  0.977584  0.619824  1
  O  O21  1  0.587675  0.161933  0.756063  1
  O  O22  1  0.587601  0.161956  0.256072  1
  S  S23  1  0.742340  0.598612  0.942169  1
  S  S24  1  0.742355  0.598644  0.442186  1
 
# Source:                            Mannodi-Kanakkithodi_etal:SciRep.inpress(2016)                                  
# Class:                             organic_polymer_crystal                                                         
# Label:                             NH-CO-C4H2S-O                                                                   
# Structure prediction method used:  minima-hopping                                                                  
# Number of atoms:                    24
# Number of atom types:                5
# Atom types:                         C  H  N  O  S
# Dielectric constant, electronic:   3.87484E+00
# Dielectric constant, ionic:        1.03843E+00
# Dielectric constant, total:        4.91327E+00
# Band gap at the GGA level (eV):    2.04900E+00
# Band gap at the HSE06 level (eV):  3.04180E+00
# Atomization energy (eV/atom):     -6.07700E+00
# Volume of the unit cell (A^3):     2.44418E+02
