# generated using pymatgen
data_H7C11SNO
_symmetry_space_group_name_H-M   'P 1'
_cell_length_a   3.64636023
_cell_length_b   10.33149998
_cell_length_c   11.05880849
_cell_angle_alpha   69.93371637
_cell_angle_beta   85.24504876
_cell_angle_gamma   85.31965800
_symmetry_Int_Tables_number   1
_chemical_formula_structural   H7C11SNO
_chemical_formula_sum   'H14 C22 S2 N2 O2'
_cell_volume   389.345619123
_cell_formula_units_Z   2
loop_
 _symmetry_equiv_pos_site_id
 _symmetry_equiv_pos_as_xyz
  1  'x, y, z'
loop_
 _atom_site_type_symbol
 _atom_site_label
 _atom_site_symmetry_multiplicity
 _atom_site_fract_x
 _atom_site_fract_y
 _atom_site_fract_z
 _atom_site_occupancy
  C  C1  1  0.636329  0.774861  0.116118  1
  C  C2  1  0.636254  0.274979  0.116170  1
  C  C3  1  0.611168  0.721717  0.251232  1
  C  C4  1  0.611397  0.221877  0.251291  1
  C  C5  1  0.840125  0.688112  0.062124  1
  C  C6  1  0.839691  0.188184  0.062144  1
  C  C7  1  0.789202  0.592965  0.304318  1
  C  C8  1  0.789280  0.093089  0.304351  1
  C  C9  1  0.730998  0.529958  0.658958  1
  C  C10  1  0.729269  0.029599  0.659100  1
  C  C11  1  0.682652  0.587333  0.528770  1
  C  C12  1  0.680858  0.087001  0.528917  1
  C  C13  1  0.914997  0.399708  0.711316  1
  C  C14  1  0.914962  0.899656  0.711325  1
  C  C15  1  0.821990  0.519403  0.441821  1
  C  C16  1  0.822038  0.019469  0.441844  1
  C  C17  1  0.968907  0.357606  0.851753  1
  C  C18  1  0.968987  0.857584  0.851749  1
  C  C19  1  0.037900  0.327220  0.627951  1
  C  C20  1  0.039540  0.827493  0.627847  1
  C  C21  1  0.994470  0.386817  0.495405  1
  C  C22  1  0.996226  0.887175  0.495305  1
  H  H23  1  0.176809  0.226057  0.665407  1
  H  H24  1  0.179961  0.726603  0.665196  1
  H  H25  1  0.462282  0.777876  0.307743  1
  H  H26  1  0.463071  0.278134  0.307825  1
  H  H27  1  0.509516  0.872618  0.059696  1
  H  H28  1  0.509543  0.372756  0.059751  1
  H  H29  1  0.927094  0.145099  0.889211  1
  H  H30  1  0.928036  0.645037  0.889197  1
  H  H31  1  0.543036  0.687968  0.493162  1
  H  H32  1  0.539369  0.187293  0.493432  1
  H  H33  1  0.626138  0.584637  0.723504  1
  H  H34  1  0.622897  0.083953  0.723760  1
  H  H35  1  0.096015  0.329885  0.432262  1
  H  H36  1  0.099530  0.830591  0.432051  1
  N  N37  1  0.929496  0.221212  0.928809  1
  N  N38  1  0.930179  0.721160  0.928800  1
  O  O39  1  0.021137  0.448960  0.898589  1
  O  O40  1  0.020702  0.949004  0.898566  1
  S  S41  1  0.992970  0.535760  0.180278  1
  S  S42  1  0.992598  0.035821  0.180285  1
 
# Source:                            Mannodi-Kanakkithodi_etal:SciRep.inpress(2016)                                  
# Class:                             organic_polymer_crystal                                                         
# Label:                             NH-CO-C6H4-C4H2S                                                                
# Structure prediction method used:  minima-hopping                                                                  
# Number of atoms:                    42
# Number of atom types:                5
# Atom types:                         C  H  N  O  S
# Dielectric constant, electronic:   4.53900E+00
# Dielectric constant, ionic:        9.50079E-01
# Dielectric constant, total:        5.48908E+00
# Band gap at the GGA level (eV):    1.22660E+00
# Band gap at the HSE06 level (eV):  1.92660E+00
# Atomization energy (eV/atom):     -6.30670E+00
# Volume of the unit cell (A^3):     3.89346E+02
