# generated using pymatgen
data_H3C6S2NO
_symmetry_space_group_name_H-M   'P 1'
_cell_length_a   4.43528241
_cell_length_b   7.56460290
_cell_length_c   9.75709945
_cell_angle_alpha   71.80621220
_cell_angle_beta   83.84539741
_cell_angle_gamma   75.30221178
_symmetry_Int_Tables_number   1
_chemical_formula_structural   H3C6S2NO
_chemical_formula_sum   'H6 C12 S4 N2 O2'
_cell_volume   300.679604312
_cell_formula_units_Z   2
loop_
 _symmetry_equiv_pos_site_id
 _symmetry_equiv_pos_as_xyz
  1  'x, y, z'
loop_
 _atom_site_type_symbol
 _atom_site_label
 _atom_site_symmetry_multiplicity
 _atom_site_fract_x
 _atom_site_fract_y
 _atom_site_fract_z
 _atom_site_occupancy
  C  C1  1  0.479703  0.507637  0.169562  1
  C  C2  1  0.479697  0.007634  0.669563  1
  C  C3  1  0.649850  0.412723  0.072330  1
  C  C4  1  0.649846  0.912722  0.572330  1
  C  C5  1  0.525457  0.478672  0.933516  1
  C  C6  1  0.525455  0.978672  0.433516  1
  C  C7  1  0.222442  0.648519  0.105184  1
  C  C8  1  0.222434  0.148518  0.605183  1
  C  C9  1  0.894480  0.266812  0.797544  1
  C  C10  1  0.894481  0.766814  0.297544  1
  C  C11  1  0.614333  0.428991  0.803785  1
  C  C12  1  0.614335  0.928994  0.303784  1
  H  H13  1  0.537819  0.476893  0.280734  1
  H  H14  1  0.537809  0.976890  0.780734  1
  H  H15  1  0.861228  0.301925  0.099559  1
  H  H16  1  0.861223  0.801923  0.599560  1
  H  H17  1  0.863339  0.885835  0.081347  1
  H  H18  1  0.863323  0.385829  0.581347  1
  N  N19  1  0.993890  0.773666  0.157197  1
  N  N20  1  0.993883  0.273661  0.657197  1
  O  O21  1  0.016881  0.138906  0.904234  1
  O  O22  1  0.016870  0.638907  0.404234  1
  S  S23  1  0.404845  0.545478  0.654369  1
  S  S24  1  0.404853  0.045482  0.154367  1
  S  S25  1  0.191793  0.666895  0.924583  1
  S  S26  1  0.191792  0.166895  0.424582  1
 
# Source:                            Mannodi-Kanakkithodi_etal:SciRep.inpress(2016)                                  
# Class:                             organic_polymer_crystal                                                         
# Label:                             NH-CO-CS-C4H2S                                                                  
# Structure prediction method used:  minima-hopping                                                                  
# Number of atoms:                    26
# Number of atom types:                5
# Atom types:                         C  H  N  O  S
# Dielectric constant, electronic:   6.62886E+00
# Dielectric constant, ionic:        2.10274E+00
# Dielectric constant, total:        8.73159E+00
# Band gap at the GGA level (eV):    4.46100E-01
# Band gap at the HSE06 level (eV):  9.51200E-01
# Atomization energy (eV/atom):     -6.16071E+00
# Volume of the unit cell (A^3):     3.00680E+02
