# generated using pymatgen
data_HC3SNO2
_symmetry_space_group_name_H-M   'P 1'
_cell_length_a   4.91023749
_cell_length_b   6.25844684
_cell_length_c   6.35412662
_cell_angle_alpha   76.80705244
_cell_angle_beta   83.64309916
_cell_angle_gamma   71.21080189
_symmetry_Int_Tables_number   1
_chemical_formula_structural   HC3SNO2
_chemical_formula_sum   'H2 C6 S2 N2 O4'
_cell_volume   179.833824735
_cell_formula_units_Z   2
loop_
 _symmetry_equiv_pos_site_id
 _symmetry_equiv_pos_as_xyz
  1  'x, y, z'
loop_
 _atom_site_type_symbol
 _atom_site_label
 _atom_site_symmetry_multiplicity
 _atom_site_fract_x
 _atom_site_fract_y
 _atom_site_fract_z
 _atom_site_occupancy
  C  C1  1  0.669769  0.243338  0.720176  1
  C  C2  1  0.408262  0.217515  0.860454  1
  C  C3  1  0.169775  0.743339  0.220175  1
  C  C4  1  0.908268  0.717515  0.360450  1
  C  C5  1  0.394052  0.784701  0.337560  1
  C  C6  1  0.894048  0.284698  0.837557  1
  H  H7  1  0.210411  0.178581  0.602438  1
  H  H8  1  0.710416  0.678583  0.102436  1
  N  N9  1  0.174457  0.219476  0.751944  1
  N  N10  1  0.674462  0.719477  0.251941  1
  O  O11  1  0.328551  0.877742  0.494550  1
  O  O12  1  0.828544  0.377745  0.994555  1
  O  O13  1  0.403222  0.187124  0.058914  1
  O  O14  1  0.903229  0.687121  0.558915  1
  S  S15  1  0.702687  0.237736  0.463370  1
  S  S16  1  0.202693  0.737736  0.963368  1
 
# Source:                            Mannodi-Kanakkithodi_etal:SciRep.inpress(2016)                                  
# Class:                             organic_polymer_crystal                                                         
# Label:                             NH-CO-CS-CO                                                                     
# Structure prediction method used:  minima-hopping                                                                  
# Number of atoms:                    16
# Number of atom types:                5
# Atom types:                         C  H  N  O  S
# Dielectric constant, electronic:   5.11660E+00
# Dielectric constant, ionic:        1.45978E+00
# Dielectric constant, total:        6.57639E+00
# Band gap at the GGA level (eV):    2.01800E-01
# Band gap at the HSE06 level (eV):  1.43630E+00
# Atomization energy (eV/atom):     -6.35370E+00
# Volume of the unit cell (A^3):     1.79834E+02
