# generated using pymatgen
data_HC2SNO2
_symmetry_space_group_name_H-M   'P 1'
_cell_length_a   4.70318746
_cell_length_b   5.89196719
_cell_length_c   5.97450583
_cell_angle_alpha   72.50861494
_cell_angle_beta   77.30098613
_cell_angle_gamma   79.52686679
_symmetry_Int_Tables_number   1
_chemical_formula_structural   HC2SNO2
_chemical_formula_sum   'H2 C4 S2 N2 O4'
_cell_volume   152.846286685
_cell_formula_units_Z   2
loop_
 _symmetry_equiv_pos_site_id
 _symmetry_equiv_pos_as_xyz
  1  'x, y, z'
loop_
 _atom_site_type_symbol
 _atom_site_label
 _atom_site_symmetry_multiplicity
 _atom_site_fract_x
 _atom_site_fract_y
 _atom_site_fract_z
 _atom_site_occupancy
  C  C1  1  0.113734  0.709068  0.262262  1
  C  C2  1  0.113844  0.208863  0.762307  1
  C  C3  1  0.810473  0.350761  0.786031  1
  C  C4  1  0.810375  0.850988  0.285911  1
  H  H5  1  0.657768  0.622436  0.139370  1
  H  H6  1  0.657864  0.122296  0.639405  1
  N  N7  1  0.606824  0.729901  0.253889  1
  N  N8  1  0.606919  0.229652  0.754031  1
  O  O9  1  0.755994  0.543717  0.837931  1
  O  O10  1  0.755900  0.043967  0.337770  1
  O  O11  1  0.315901  0.854145  0.261805  1
  O  O12  1  0.315986  0.353883  0.761997  1
  S  S13  1  0.185813  0.436490  0.239438  1
  S  S14  1  0.185938  0.936342  0.739301  1
 
# Source:                            Mannodi-Kanakkithodi_etal:SciRep.inpress(2016)                                  
# Class:                             organic_polymer_crystal                                                         
# Label:                             NH-CO-CS-O                                                                      
# Structure prediction method used:  minima-hopping                                                                  
# Number of atoms:                    14
# Number of atom types:                5
# Atom types:                         C  H  N  O  S
# Dielectric constant, electronic:   4.48328E+00
# Dielectric constant, ionic:        1.31082E+00
# Dielectric constant, total:        5.79410E+00
# Band gap at the GGA level (eV):    8.89300E-01
# Band gap at the HSE06 level (eV):  2.09500E+00
# Atomization energy (eV/atom):     -5.87856E+00
# Volume of the unit cell (A^3):     1.52846E+02
