# generated using pymatgen
data_H4C5SN2O
_symmetry_space_group_name_H-M   'P 1'
_cell_length_a   4.98379769
_cell_length_b   6.83155098
_cell_length_c   7.44297033
_cell_angle_alpha   100.72510159
_cell_angle_beta   93.38503200
_cell_angle_gamma   93.24591480
_symmetry_Int_Tables_number   1
_chemical_formula_structural   H4C5SN2O
_chemical_formula_sum   'H8 C10 S2 N4 O2'
_cell_volume   247.958946368
_cell_formula_units_Z   2
loop_
 _symmetry_equiv_pos_site_id
 _symmetry_equiv_pos_as_xyz
  1  'x, y, z'
loop_
 _atom_site_type_symbol
 _atom_site_label
 _atom_site_symmetry_multiplicity
 _atom_site_fract_x
 _atom_site_fract_y
 _atom_site_fract_z
 _atom_site_occupancy
  C  C1  1  0.765608  0.795733  0.871436  1
  C  C2  1  0.766749  0.295597  0.370777  1
  C  C3  1  0.956848  0.698361  0.969104  1
  C  C4  1  0.957648  0.198041  0.468519  1
  C  C5  1  0.574921  0.664350  0.765502  1
  C  C6  1  0.575265  0.164440  0.265384  1
  C  C7  1  0.905847  0.494646  0.937051  1
  C  C8  1  0.905532  0.994451  0.437135  1
  C  C9  1  0.234482  0.357810  0.134450  1
  C  C10  1  0.233749  0.857479  0.634675  1
  H  H11  1  0.130023  0.774644  0.052414  1
  H  H12  1  0.131406  0.274037  0.551380  1
  H  H13  1  0.776029  0.954306  0.873040  1
  H  H14  1  0.777875  0.454066  0.371889  1
  H  H15  1  0.352381  0.084289  0.015248  1
  H  H16  1  0.352384  0.584276  0.515228  1
  H  H17  1  0.065550  0.218774  0.883380  1
  H  H18  1  0.065089  0.718547  0.383514  1
  N  N19  1  0.375332  0.190435  0.132946  1
  N  N20  1  0.374853  0.690203  0.633079  1
  N  N21  1  0.052245  0.340493  0.985254  1
  N  N22  1  0.051427  0.840092  0.485487  1
  O  O23  1  0.267689  0.510009  0.259256  1
  O  O24  1  0.266809  0.009624  0.759489  1
  S  S25  1  0.611822  0.419331  0.795296  1
  S  S26  1  0.610901  0.919554  0.295948  1
 
# Source:                            Mannodi-Kanakkithodi_etal:SciRep.inpress(2016)                                  
# Class:                             organic_polymer_crystal                                                         
# Label:                             NH-CO-NH-C4H2S                                                                  
# Structure prediction method used:  minima-hopping                                                                  
# Number of atoms:                    26
# Number of atom types:                5
# Atom types:                         C  H  N  O  S
# Dielectric constant, electronic:   4.02961E+00
# Dielectric constant, ionic:        8.97432E-01
# Dielectric constant, total:        4.92704E+00
# Band gap at the GGA level (eV):    2.13870E+00
# Band gap at the HSE06 level (eV):  3.13700E+00
# Atomization energy (eV/atom):     -6.15241E+00
# Volume of the unit cell (A^3):     2.47959E+02
