# generated using pymatgen
data_H6C7N2O
_symmetry_space_group_name_H-M   'P 1'
_cell_length_a   4.76847273
_cell_length_b   7.14623898
_cell_length_c   8.04768639
_cell_angle_alpha   92.68600910
_cell_angle_beta   89.99518991
_cell_angle_gamma   109.50054941
_symmetry_Int_Tables_number   1
_chemical_formula_structural   H6C7N2O
_chemical_formula_sum   'H12 C14 N4 O2'
_cell_volume   258.188121247
_cell_formula_units_Z   2
loop_
 _symmetry_equiv_pos_site_id
 _symmetry_equiv_pos_as_xyz
  1  'x, y, z'
loop_
 _atom_site_type_symbol
 _atom_site_label
 _atom_site_symmetry_multiplicity
 _atom_site_fract_x
 _atom_site_fract_y
 _atom_site_fract_z
 _atom_site_occupancy
  O  O1  1  0.555957  0.682597  0.338105  1
  O  O2  1  0.641874  0.682624  0.838152  1
  C  C3  1  0.875642  0.098944  0.466690  1
  C  C4  1  0.922746  0.288727  0.536905  1
  C  C5  1  0.054133  0.990681  0.517604  1
  C  C6  1  0.143657  0.374506  0.658694  1
  C  C7  1  0.819714  0.682591  0.338142  1
  C  C8  1  0.275039  0.076458  0.639397  1
  C  C9  1  0.322136  0.266239  0.709613  1
  C  C10  1  0.738527  0.098981  0.966688  1
  C  C11  1  0.881251  0.288758  0.036921  1
  C  C12  1  0.451711  0.990683  0.017590  1
  C  C13  1  0.746077  0.374504  0.158706  1
  C  C14  1  0.378103  0.682606  0.838142  1
  C  C15  1  0.316530  0.076431  0.139371  1
  C  C16  1  0.459254  0.266210  0.209604  1
  H  H17  1  0.418594  0.995760  0.675331  1
  H  H18  1  0.144272  0.590156  0.232206  1
  H  H19  1  0.236667  0.775064  0.444146  1
  H  H20  1  0.779191  0.369425  0.500972  1
  H  H21  1  0.704854  0.037604  0.372102  1
  H  H22  1  0.492911  0.327577  0.804207  1
  H  H23  1  0.092214  0.995721  0.175285  1
  H  H24  1  0.961134  0.590126  0.732157  1
  H  H25  1  0.053535  0.775010  0.944101  1
  H  H26  1  0.105565  0.369470  0.001007  1
  H  H27  1  0.847987  0.037656  0.872103  1
  H  H28  1  0.349779  0.327535  0.304183  1
  N  N29  1  0.919274  0.560134  0.234010  1
  N  N30  1  0.041686  0.805054  0.442319  1
  N  N31  1  0.156114  0.560135  0.733978  1
  N  N32  1  0.278537  0.805044  0.942293  1
 
# Source:                            Mannodi-Kanakkithodi_etal:SciRep.inpress(2016)                                  
# Class:                             organic_polymer_crystal                                                         
# Label:                             NH-CO-NH-C6H4                                                                   
# Structure prediction method used:  minima-hopping                                                                  
# Number of atoms:                    32
# Number of atom types:                4
# Atom types:                         O  C  H  N
# Dielectric constant, electronic:   3.88786E+00
# Dielectric constant, ionic:        1.02214E+00
# Dielectric constant, total:        4.91000E+00
# Band gap at the GGA level (eV):    2.45530E+00
# Band gap at the HSE06 level (eV):  3.45150E+00
# Atomization energy (eV/atom):     -6.30920E+00
# Volume of the unit cell (A^3):     2.58188E+02
