# generated using pymatgen
data_H2C(NO)2
_symmetry_space_group_name_H-M   'P 1'
_cell_length_a   3.92134785
_cell_length_b   4.53446267
_cell_length_c   6.26837889
_cell_angle_alpha   80.28469793
_cell_angle_beta   77.91182420
_cell_angle_gamma   84.54252816
_symmetry_Int_Tables_number   1
_chemical_formula_structural   H2C(NO)2
_chemical_formula_sum   'H4 C2 N4 O4'
_cell_volume   107.218080885
_cell_formula_units_Z   2
loop_
 _symmetry_equiv_pos_site_id
 _symmetry_equiv_pos_as_xyz
  1  'x, y, z'
loop_
 _atom_site_type_symbol
 _atom_site_label
 _atom_site_symmetry_multiplicity
 _atom_site_fract_x
 _atom_site_fract_y
 _atom_site_fract_z
 _atom_site_occupancy
  C  C1  1  0.011950  0.844587  0.301976  1
  C  C2  1  0.011957  0.844612  0.801976  1
  H  H3  1  0.371295  0.100935  0.561668  1
  H  H4  1  0.413779  0.602228  0.632922  1
  H  H5  1  0.371299  0.100909  0.061676  1
  H  H6  1  0.413764  0.602207  0.132912  1
  N  N7  1  0.213652  0.576576  0.769339  1
  N  N8  1  0.213646  0.576550  0.269334  1
  N  N9  1  0.172233  0.096565  0.197705  1
  N  N10  1  0.172239  0.096591  0.697703  1
  O  O11  1  0.721641  0.848219  0.428029  1
  O  O12  1  0.721647  0.848243  0.928029  1
  O  O13  1  0.973458  0.366345  0.221912  1
  O  O14  1  0.973466  0.366370  0.721914  1
 
# Source:                            Mannodi-Kanakkithodi_etal:SciRep.inpress(2016)                                  
# Class:                             organic_polymer_crystal                                                         
# Label:                             NH-CO-NH-O                                                                      
# Structure prediction method used:  minima-hopping                                                                  
# Number of atoms:                    14
# Number of atom types:                4
# Atom types:                         C  H  N  O
# Dielectric constant, electronic:   3.51698E+00
# Dielectric constant, ionic:        1.08579E+00
# Dielectric constant, total:        4.60278E+00
# Band gap at the GGA level (eV):    3.25140E+00
# Band gap at the HSE06 level (eV):  5.06580E+00
# Atomization energy (eV/atom):     -5.70037E+00
# Volume of the unit cell (A^3):     1.07218E+02
