# generated using pymatgen
data_H3C5SNO2
_symmetry_space_group_name_H-M   'P 1'
_cell_length_a   3.64621972
_cell_length_b   7.50052878
_cell_length_c   9.31607162
_cell_angle_alpha   104.97920540
_cell_angle_beta   91.31369133
_cell_angle_gamma   102.79763772
_symmetry_Int_Tables_number   1
_chemical_formula_structural   H3C5SNO2
_chemical_formula_sum   'H6 C10 S2 N2 O4'
_cell_volume   239.138721504
_cell_formula_units_Z   2
loop_
 _symmetry_equiv_pos_site_id
 _symmetry_equiv_pos_as_xyz
  1  'x, y, z'
loop_
 _atom_site_type_symbol
 _atom_site_label
 _atom_site_symmetry_multiplicity
 _atom_site_fract_x
 _atom_site_fract_y
 _atom_site_fract_z
 _atom_site_occupancy
  C  C1  1  0.175633  0.095446  0.261336  1
  C  C2  1  0.177636  0.595131  0.761187  1
  C  C3  1  0.015922  0.981165  0.355948  1
  C  C4  1  0.016352  0.481189  0.855813  1
  C  C5  1  0.425992  0.260263  0.336314  1
  C  C6  1  0.427135  0.760174  0.836339  1
  C  C7  1  0.149784  0.065906  0.501767  1
  C  C8  1  0.148102  0.566416  0.001780  1
  C  C9  1  0.769616  0.871080  0.641192  1
  C  C10  1  0.767530  0.371451  0.141042  1
  H  H11  1  0.801311  0.851001  0.318689  1
  H  H12  1  0.802417  0.350790  0.818392  1
  H  H13  1  0.106930  0.058667  0.143018  1
  H  H14  1  0.110735  0.557909  0.642742  1
  H  H15  1  0.751015  0.032567  0.853744  1
  H  H16  1  0.748559  0.532845  0.353604  1
  N  N17  1  0.655359  0.900834  0.781643  1
  N  N18  1  0.653064  0.401110  0.281476  1
  O  O19  1  0.041660  0.031870  0.636511  1
  O  O20  1  0.038656  0.532585  0.136425  1
  O  O21  1  0.661117  0.729000  0.535249  1
  O  O22  1  0.659898  0.229285  0.035110  1
  S  S23  1  0.473294  0.281867  0.527090  1
  S  S24  1  0.471345  0.782510  0.027278  1
 
# Source:                            Mannodi-Kanakkithodi_etal:SciRep.inpress(2016)                                  
# Class:                             organic_polymer_crystal                                                         
# Label:                             NH-CO-O-C4H2S                                                                   
# Structure prediction method used:  minima-hopping                                                                  
# Number of atoms:                    24
# Number of atom types:                5
# Atom types:                         C  H  N  O  S
# Dielectric constant, electronic:   3.73268E+00
# Dielectric constant, ionic:        9.33839E-01
# Dielectric constant, total:        4.66652E+00
# Band gap at the GGA level (eV):    2.36110E+00
# Band gap at the HSE06 level (eV):  3.42270E+00
# Atomization energy (eV/atom):     -6.20359E+00
# Volume of the unit cell (A^3):     2.39139E+02
