# generated using pymatgen
data_H5C7NO2
_symmetry_space_group_name_H-M   'P 1'
_cell_length_a   3.38497957
_cell_length_b   7.97643525
_cell_length_c   10.32268300
_cell_angle_alpha   67.38255644
_cell_angle_beta   83.86090704
_cell_angle_gamma   86.93757052
_symmetry_Int_Tables_number   1
_chemical_formula_structural   H5C7NO2
_chemical_formula_sum   'H10 C14 N2 O4'
_cell_volume   255.779827002
_cell_formula_units_Z   2
loop_
 _symmetry_equiv_pos_site_id
 _symmetry_equiv_pos_as_xyz
  1  'x, y, z'
loop_
 _atom_site_type_symbol
 _atom_site_label
 _atom_site_symmetry_multiplicity
 _atom_site_fract_x
 _atom_site_fract_y
 _atom_site_fract_z
 _atom_site_occupancy
  C  C1  1  0.133669  0.073713  0.343377  1
  C  C2  1  0.133670  0.573713  0.843375  1
  C  C3  1  0.174806  0.971448  0.257870  1
  C  C4  1  0.174801  0.471447  0.757870  1
  C  C5  1  0.958222  0.992080  0.480457  1
  C  C6  1  0.958228  0.492080  0.980457  1
  C  C7  1  0.031136  0.794835  0.308732  1
  C  C8  1  0.031128  0.294834  0.808732  1
  C  C9  1  0.079913  0.211389  0.593567  1
  C  C10  1  0.079925  0.711390  0.093566  1
  C  C11  1  0.806298  0.817375  0.530324  1
  C  C12  1  0.806301  0.317376  0.030325  1
  C  C13  1  0.839937  0.719190  0.445417  1
  C  C14  1  0.839934  0.219190  0.945419  1
  H  H15  1  0.667248  0.762019  0.636706  1
  H  H16  1  0.667255  0.262021  0.136708  1
  H  H17  1  0.970179  0.048564  0.796337  1
  H  H18  1  0.970199  0.548564  0.296336  1
  H  H19  1  0.315241  0.029394  0.151956  1
  H  H20  1  0.315232  0.529393  0.651954  1
  H  H21  1  0.241662  0.211145  0.304977  1
  H  H22  1  0.241663  0.711145  0.804975  1
  H  H23  1  0.721224  0.583832  0.482450  1
  H  H24  1  0.721221  0.083833  0.982452  1
  N  N25  1  0.057553  0.177122  0.734452  1
  N  N26  1  0.057570  0.677123  0.234451  1
  O  O27  1  0.898795  0.063849  0.585958  1
  O  O28  1  0.898806  0.563850  0.085957  1
  O  O29  1  0.220948  0.343072  0.493142  1
  O  O30  1  0.220957  0.843074  0.993141  1
 
# Source:                            Mannodi-Kanakkithodi_etal:SciRep.inpress(2016)                                  
# Class:                             organic_polymer_crystal                                                         
# Label:                             NH-CO-O-C6H4                                                                    
# Structure prediction method used:  minima-hopping                                                                  
# Number of atoms:                    30
# Number of atom types:                4
# Atom types:                         C  H  N  O
# Dielectric constant, electronic:   3.53527E+00
# Dielectric constant, ionic:        1.19754E+00
# Dielectric constant, total:        4.73281E+00
# Band gap at the GGA level (eV):    2.49420E+00
# Band gap at the HSE06 level (eV):  3.45460E+00
# Atomization energy (eV/atom):     -6.35101E+00
# Volume of the unit cell (A^3):     2.55780E+02
