# generated using pymatgen
data_H3C5S2NO
_symmetry_space_group_name_H-M   'P 1'
_cell_length_a   3.69355331
_cell_length_b   8.07301287
_cell_length_c   9.79637174
_cell_angle_alpha   106.79737281
_cell_angle_beta   98.12411704
_cell_angle_gamma   92.07617771
_symmetry_Int_Tables_number   1
_chemical_formula_structural   H3C5S2NO
_chemical_formula_sum   'H6 C10 S4 N2 O2'
_cell_volume   275.922436372
_cell_formula_units_Z   2
loop_
 _symmetry_equiv_pos_site_id
 _symmetry_equiv_pos_as_xyz
  1  'x, y, z'
loop_
 _atom_site_type_symbol
 _atom_site_label
 _atom_site_symmetry_multiplicity
 _atom_site_fract_x
 _atom_site_fract_y
 _atom_site_fract_z
 _atom_site_occupancy
  C  C1  1  0.859938  0.808380  0.485493  1
  C  C2  1  0.856536  0.308684  0.984927  1
  C  C3  1  0.831253  0.927369  0.403847  1
  C  C4  1  0.829522  0.427860  0.903431  1
  C  C5  1  0.017714  0.089366  0.475327  1
  C  C6  1  0.016514  0.589628  0.975235  1
  C  C7  1  0.071766  0.883038  0.619341  1
  C  C8  1  0.067777  0.382953  0.118958  1
  C  C9  1  0.100662  0.232835  0.421703  1
  C  C10  1  0.101229  0.733064  0.921785  1
  H  H11  1  0.745110  0.674729  0.447625  1
  H  H12  1  0.740965  0.175149  0.946864  1
  H  H13  1  0.685100  0.894715  0.294413  1
  H  H14  1  0.684215  0.395563  0.793886  1
  H  H15  1  0.005418  0.076809  0.210032  1
  H  H16  1  0.013379  0.576512  0.710174  1
  N  N17  1  0.995828  0.202314  0.274626  1
  N  N18  1  0.000645  0.701924  0.774442  1
  O  O19  1  0.236810  0.811308  0.720611  1
  O  O20  1  0.232345  0.310768  0.219973  1
  S  S21  1  0.214655  0.100180  0.651333  1
  S  S22  1  0.211908  0.600055  0.151307  1
  S  S23  1  0.315346  0.423137  0.527603  1
  S  S24  1  0.312530  0.923810  0.028147  1
 
# Source:                            Mannodi-Kanakkithodi_etal:SciRep.inpress(2016)                                  
# Class:                             organic_polymer_crystal                                                         
# Label:                             NH-CS-C4H2S-O                                                                   
# Structure prediction method used:  minima-hopping                                                                  
# Number of atoms:                    24
# Number of atom types:                5
# Atom types:                         C  H  N  O  S
# Dielectric constant, electronic:   4.57653E+00
# Dielectric constant, ionic:        1.05241E+00
# Dielectric constant, total:        5.62895E+00
# Band gap at the GGA level (eV):    1.54070E+00
# Band gap at the HSE06 level (eV):  2.38990E+00
# Atomization energy (eV/atom):     -5.81789E+00
# Volume of the unit cell (A^3):     2.75922E+02
