# generated using pymatgen
data_HCSN
_symmetry_space_group_name_H-M   'P 1'
_cell_length_a   3.93936209
_cell_length_b   4.32769772
_cell_length_c   11.79424372
_cell_angle_alpha   91.40912707
_cell_angle_beta   93.44427378
_cell_angle_gamma   92.98611384
_symmetry_Int_Tables_number   1
_chemical_formula_structural   HCSN
_chemical_formula_sum   'H4 C4 S4 N4'
_cell_volume   200.359370681
_cell_formula_units_Z   4
loop_
 _symmetry_equiv_pos_site_id
 _symmetry_equiv_pos_as_xyz
  1  'x, y, z'
loop_
 _atom_site_type_symbol
 _atom_site_label
 _atom_site_symmetry_multiplicity
 _atom_site_fract_x
 _atom_site_fract_y
 _atom_site_fract_z
 _atom_site_occupancy
  C  C1  1  0.970182  0.379937  0.804393  1
  C  C2  1  0.970116  0.380024  0.304393  1
  C  C3  1  0.141107  0.881888  0.209087  1
  C  C4  1  0.141174  0.881798  0.709086  1
  H  H5  1  0.211407  0.438538  0.657825  1
  H  H6  1  0.211333  0.438626  0.157824  1
  H  H7  1  0.899525  0.936794  0.855538  1
  H  H8  1  0.899456  0.936884  0.355537  1
  N  N9  1  0.101319  0.561289  0.721545  1
  N  N10  1  0.101243  0.561377  0.221544  1
  N  N11  1  0.010064  0.061454  0.791909  1
  N  N12  1  0.009995  0.061544  0.291909  1
  S  S13  1  0.345933  0.004257  0.096488  1
  S  S14  1  0.345985  0.004173  0.596486  1
  S  S15  1  0.766221  0.498027  0.917003  1
  S  S16  1  0.766168  0.498115  0.417005  1
 
# Source:                            Mannodi-Kanakkithodi_etal:SciRep.inpress(2016)                                  
# Class:                             organic_polymer_crystal                                                         
# Label:                             NH-CS-NH-CS                                                                     
# Structure prediction method used:  minima-hopping                                                                  
# Number of atoms:                    16
# Number of atom types:                4
# Atom types:                         C  H  N  S
# Dielectric constant, electronic:   5.07624E+00
# Dielectric constant, ionic:        9.78225E-01
# Dielectric constant, total:        6.05446E+00
# Band gap at the GGA level (eV):    1.16070E+00
# Band gap at the HSE06 level (eV):  2.03150E+00
# Atomization energy (eV/atom):     -5.68577E+00
# Volume of the unit cell (A^3):     2.00359E+02
