# generated using pymatgen
data_H2CSN2O
_symmetry_space_group_name_H-M   'P 1'
_cell_length_a   4.57063506
_cell_length_b   5.12634238
_cell_length_c   6.70143048
_cell_angle_alpha   82.31901513
_cell_angle_beta   89.60881005
_cell_angle_gamma   69.53614324
_symmetry_Int_Tables_number   1
_chemical_formula_structural   H2CSN2O
_chemical_formula_sum   'H4 C2 S2 N4 O2'
_cell_volume   145.655196677
_cell_formula_units_Z   2
loop_
 _symmetry_equiv_pos_site_id
 _symmetry_equiv_pos_as_xyz
  1  'x, y, z'
loop_
 _atom_site_type_symbol
 _atom_site_label
 _atom_site_symmetry_multiplicity
 _atom_site_fract_x
 _atom_site_fract_y
 _atom_site_fract_z
 _atom_site_occupancy
  C  C1  1  0.355909  0.133053  0.237333  1
  C  C2  1  0.855913  0.133041  0.737329  1
  H  H3  1  0.231282  0.756398  0.754646  1
  H  H4  1  0.731296  0.756412  0.254648  1
  H  H5  1  0.750876  0.781686  0.836093  1
  H  H6  1  0.250864  0.781704  0.336099  1
  N  N7  1  0.164306  0.964679  0.776962  1
  N  N8  1  0.664301  0.964695  0.276958  1
  N  N9  1  0.656789  0.999053  0.816975  1
  N  N10  1  0.156783  0.999068  0.316980  1
  O  O11  1  0.378252  0.080538  0.678715  1
  O  O12  1  0.878253  0.080562  0.178723  1
  S  S13  1  0.235195  0.461538  0.118547  1
  S  S14  1  0.735199  0.461531  0.618543  1
 
# Source:                            Mannodi-Kanakkithodi_etal:SciRep.inpress(2016)                                  
# Class:                             organic_polymer_crystal                                                         
# Label:                             NH-CS-NH-O                                                                      
# Structure prediction method used:  minima-hopping                                                                  
# Number of atoms:                    14
# Number of atom types:                5
# Atom types:                         C  H  N  O  S
# Dielectric constant, electronic:   4.27336E+00
# Dielectric constant, ionic:        1.80274E+00
# Dielectric constant, total:        6.07611E+00
# Band gap at the GGA level (eV):    2.07360E+00
# Band gap at the HSE06 level (eV):  3.39160E+00
# Atomization energy (eV/atom):     -5.22694E+00
# Volume of the unit cell (A^3):     1.45655E+02
