# generated using pymatgen
data_H5C6NO2
_symmetry_space_group_name_H-M   'P 1'
_cell_length_a   6.41162170
_cell_length_b   6.53363952
_cell_length_c   6.64294181
_cell_angle_alpha   65.70631800
_cell_angle_beta   64.80601740
_cell_angle_gamma   85.33193066
_symmetry_Int_Tables_number   1
_chemical_formula_structural   H5C6NO2
_chemical_formula_sum   'H10 C12 N2 O4'
_cell_volume   228.023020565
_cell_formula_units_Z   2
loop_
 _symmetry_equiv_pos_site_id
 _symmetry_equiv_pos_as_xyz
  1  'x, y, z'
loop_
 _atom_site_type_symbol
 _atom_site_label
 _atom_site_symmetry_multiplicity
 _atom_site_fract_x
 _atom_site_fract_y
 _atom_site_fract_z
 _atom_site_occupancy
  C  C1  1  0.689201  0.904219  0.595556  1
  C  C2  1  0.689204  0.404219  0.095554  1
  C  C3  1  0.536101  0.053257  0.662755  1
  C  C4  1  0.536099  0.553260  0.162754  1
  C  C5  1  0.924024  0.949522  0.527883  1
  C  C6  1  0.924026  0.449527  0.027883  1
  C  C7  1  0.620823  0.241280  0.665675  1
  C  C8  1  0.620823  0.741282  0.165676  1
  C  C9  1  0.009296  0.138266  0.529014  1
  C  C10  1  0.009296  0.638269  0.029014  1
  C  C11  1  0.854792  0.284555  0.601366  1
  C  C12  1  0.854790  0.784559  0.101366  1
  H  H13  1  0.191298  0.169214  0.478451  1
  H  H14  1  0.191297  0.669218  0.978452  1
  H  H15  1  0.305465  0.626583  0.541066  1
  H  H16  1  0.305467  0.126586  0.041068  1
  H  H17  1  0.353765  0.022309  0.712546  1
  H  H18  1  0.353768  0.522308  0.212544  1
  H  H19  1  0.628284  0.752820  0.599437  1
  H  H20  1  0.628288  0.252823  0.099435  1
  H  H21  1  0.915031  0.432330  0.604518  1
  H  H22  1  0.915029  0.932332  0.104519  1
  N  N23  1  0.280621  0.795478  0.484943  1
  N  N24  1  0.280624  0.295481  0.984941  1
  O  O25  1  0.067303  0.792571  0.455259  1
  O  O26  1  0.067305  0.292575  0.955258  1
  O  O27  1  0.472669  0.899329  0.229370  1
  O  O28  1  0.472671  0.399329  0.729369  1
 
# Source:                            Mannodi-Kanakkithodi_etal:SciRep.inpress(2016)                                  
# Class:                             organic_polymer_crystal                                                         
# Label:                             NH-O-C6H4-O                                                                     
# Structure prediction method used:  minima-hopping                                                                  
# Number of atoms:                    28
# Number of atom types:                4
# Atom types:                         C  H  N  O
# Dielectric constant, electronic:   3.49360E+00
# Dielectric constant, ionic:        6.39702E-01
# Dielectric constant, total:        4.13330E+00
# Band gap at the GGA level (eV):    3.32800E+00
# Band gap at the HSE06 level (eV):  4.55870E+00
# Atomization energy (eV/atom):     -5.98221E+00
# Volume of the unit cell (A^3):     2.28023E+02
