# generated using pymatgen
data_HCNO3
_symmetry_space_group_name_H-M   'P 1'
_cell_length_a   4.47501532
_cell_length_b   4.53263634
_cell_length_c   5.11899493
_cell_angle_alpha   76.43959042
_cell_angle_beta   89.96067023
_cell_angle_gamma   89.97277099
_symmetry_Int_Tables_number   1
_chemical_formula_structural   HCNO3
_chemical_formula_sum   'H2 C2 N2 O6'
_cell_volume   100.937212345
_cell_formula_units_Z   2
loop_
 _symmetry_equiv_pos_site_id
 _symmetry_equiv_pos_as_xyz
  1  'x, y, z'
loop_
 _atom_site_type_symbol
 _atom_site_label
 _atom_site_symmetry_multiplicity
 _atom_site_fract_x
 _atom_site_fract_y
 _atom_site_fract_z
 _atom_site_occupancy
  C  C1  1  0.101432  0.729144  0.262663  1
  C  C2  1  0.101426  0.229144  0.762663  1
  H  H3  1  0.601474  0.528450  0.282457  1
  H  H4  1  0.601467  0.028447  0.782452  1
  N  N5  1  0.601506  0.750161  0.165071  1
  N  N6  1  0.601499  0.250160  0.665070  1
  O  O7  1  0.101601  0.467617  0.243161  1
  O  O8  1  0.101596  0.967609  0.743159  1
  O  O9  1  0.853240  0.400171  0.774084  1
  O  O10  1  0.853246  0.900176  0.274082  1
  O  O11  1  0.349411  0.900267  0.273872  1
  O  O12  1  0.349404  0.400262  0.773872  1
 
# Source:                            Mannodi-Kanakkithodi_etal:SciRep.inpress(2016)                                  
# Class:                             organic_polymer_crystal                                                         
# Label:                             NH-O-CO-O                                                                       
# Structure prediction method used:  minima-hopping                                                                  
# Number of atoms:                    12
# Number of atom types:                4
# Atom types:                         C  H  N  O
# Dielectric constant, electronic:   3.05538E+00
# Dielectric constant, ionic:        1.19567E+00
# Dielectric constant, total:        4.25106E+00
# Band gap at the GGA level (eV):    3.02520E+00
# Band gap at the HSE06 level (eV):  5.00890E+00
# Atomization energy (eV/atom):     -5.76681E+00
# Volume of the unit cell (A^3):     1.00937E+02
