# generated using pymatgen
data_H16C20S2N4O
_symmetry_space_group_name_H-M   'P 1'
_cell_length_a   3.73681613
_cell_length_b   10.41137250
_cell_length_c   20.54426219
_cell_angle_alpha   86.34903990
_cell_angle_beta   88.21355154
_cell_angle_gamma   89.89941813
_symmetry_Int_Tables_number   1
_chemical_formula_structural   H16C20S2N4O
_chemical_formula_sum   'H32 C40 S4 N8 O2'
_cell_volume   797.272553412
_cell_formula_units_Z   2
loop_
 _symmetry_equiv_pos_site_id
 _symmetry_equiv_pos_as_xyz
  1  'x, y, z'
loop_
 _atom_site_type_symbol
 _atom_site_label
 _atom_site_symmetry_multiplicity
 _atom_site_fract_x
 _atom_site_fract_y
 _atom_site_fract_z
 _atom_site_occupancy
  C  C1  1  0.039895  0.021698  0.349901  1
  C  C2  1  0.987238  0.991308  0.227977  1
  C  C3  1  0.816997  0.905434  0.188651  1
  C  C4  1  0.123654  0.107378  0.199194  1
  C  C5  1  0.756280  0.938427  0.122858  1
  C  C6  1  0.060918  0.140069  0.133861  1
  C  C7  1  0.868673  0.059313  0.096293  1
  C  C8  1  0.864604  0.065054  0.975809  1
  C  C9  1  0.756334  0.943647  0.959576  1
  C  C10  1  0.051005  0.147517  0.930230  1
  C  C11  1  0.838234  0.907031  0.896675  1
  C  C12  1  0.135264  0.109367  0.867706  1
  C  C13  1  0.026463  0.987500  0.850883  1
  C  C14  1  0.020036  0.993741  0.728316  1
  C  C15  1  0.072773  0.948689  0.609627  1
  C  C16  1  0.890042  0.852933  0.579613  1
  C  C17  1  0.206087  0.055543  0.571648  1
  C  C18  1  0.863544  0.856876  0.512490  1
  C  C19  1  0.175709  0.061566  0.503654  1
  C  C20  1  0.013580  0.959784  0.473406  1
  C  C21  1  0.559971  0.516999  0.360542  1
  C  C22  1  0.536598  0.488008  0.238424  1
  C  C23  1  0.645393  0.396311  0.194472  1
  C  C24  1  0.351747  0.598142  0.215147  1
  C  C25  1  0.555050  0.409180  0.129373  1
  C  C26  1  0.263012  0.611130  0.149466  1
  C  C27  1  0.352223  0.515048  0.107652  1
  C  C28  1  0.341344  0.529457  0.986184  1
  C  C29  1  0.531376  0.429726  0.958115  1
  C  C30  1  0.251863  0.640810  0.949369  1
  C  C31  1  0.631029  0.442304  0.891727  1
  C  C32  1  0.342012  0.650725  0.883130  1
  C  C33  1  0.534380  0.553407  0.854299  1
  C  C34  1  0.534598  0.504596  0.736624  1
  C  C35  1  0.587157  0.509102  0.613927  1
  C  C36  1  0.725829  0.393165  0.592635  1
  C  C37  1  0.398623  0.590317  0.570776  1
  C  C38  1  0.700699  0.367893  0.526963  1
  C  C39  1  0.370176  0.565859  0.505494  1
  C  C40  1  0.541788  0.457619  0.482338  1
  H  H41  1  0.929489  0.849637  0.397837  1
  H  H42  1  0.957343  0.856543  0.304473  1
  H  H43  1  0.717153  0.814143  0.210327  1
  H  H44  1  0.276205  0.170824  0.227211  1
  H  H45  1  0.604352  0.873496  0.095142  1
  H  H46  1  0.157342  0.230387  0.111171  1
  H  H47  1  0.599019  0.880585  0.993241  1
  H  H48  1  0.133658  0.240816  0.944631  1
  H  H49  1  0.753411  0.813825  0.883158  1
  H  H50  1  0.287771  0.172379  0.833327  1
  H  H51  1  0.368494  0.896690  0.787041  1
  H  H52  1  0.238123  0.833935  0.689420  1
  H  H53  1  0.770408  0.774392  0.609641  1
  H  H54  1  0.347270  0.130644  0.594600  1
  H  H55  1  0.726167  0.780574  0.489849  1
  H  H56  1  0.291577  0.141695  0.474407  1
  H  H57  1  0.610290  0.338600  0.406874  1
  H  H58  1  0.681217  0.358537  0.311292  1
  H  H59  1  0.796348  0.313268  0.212383  1
  H  H60  1  0.264074  0.669512  0.247950  1
  H  H61  1  0.634854  0.337009  0.096229  1
  H  H62  1  0.102273  0.691857  0.131488  1
  H  H63  1  0.599656  0.343400  0.987437  1
  H  H64  1  0.095725  0.714115  0.972304  1
  H  H65  1  0.782059  0.367521  0.868921  1
  H  H66  1  0.256588  0.732788  0.852737  1
  H  H67  1  0.740115  0.665483  0.774502  1
  H  H68  1  0.906520  0.599183  0.677756  1
  H  H69  1  0.865475  0.326830  0.625756  1
  H  H70  1  0.279026  0.676678  0.588134  1
  H  H71  1  0.821808  0.281198  0.509425  1
  H  H72  1  0.220269  0.630080  0.473414  1
  O  O73  1  0.766691  0.116335  0.035470  1
  O  O74  1  0.175254  0.518255  0.048446  1
  N  N75  1  0.995969  0.942508  0.405549  1
  N  N76  1  0.018341  0.951758  0.295054  1
  N  N77  1  0.116842  0.934968  0.788632  1
  N  N78  1  0.138746  0.923279  0.677566  1
  N  N79  1  0.555501  0.432443  0.415295  1
  N  N80  1  0.611639  0.453450  0.304593  1
  N  N81  1  0.635434  0.576702  0.786885  1
  N  N82  1  0.657269  0.559745  0.676387  1
  S  S83  1  0.108989  0.182254  0.350147  1
  S  S84  1  0.779222  0.126937  0.719088  1
  S  S85  1  0.518052  0.679261  0.360950  1
  S  S86  1  0.285770  0.372806  0.745671  1
 
# Source:                            Ma_etal:JMatterChemA.3.14845(2015)                                              
# Class:                             organic_polymer_crystal                                                         
# Label:                             NH-CS-NH-C6H4-NH-CS-NH-C6H4-O-C6H4                                              
# Structure prediction method used:  USPEX                                                                           
# Number of atoms:                    86
# Number of atom types:                5
# Atom types:                         C  H  O  N  S
# Dielectric constant, electronic:   3.81736E+00
# Dielectric constant, ionic:        8.22211E-01
# Dielectric constant, total:        4.63957E+00
# Band gap at the GGA level (eV):    2.05480E+00
# Band gap at the HSE06 level (eV):  3.23610E+00
# Atomization energy (eV/atom):     -6.13133E+00
# Volume of the unit cell (A^3):     7.97273E+02
