# generated using pymatgen
data_H16C20S2N4O
_symmetry_space_group_name_H-M   'P 1'
_cell_length_a   5.54575629
_cell_length_b   6.71409001
_cell_length_c   20.96635000
_cell_angle_alpha   89.91573845
_cell_angle_beta   89.96111610
_cell_angle_gamma   83.30747801
_symmetry_Int_Tables_number   1
_chemical_formula_structural   H16C20S2N4O
_chemical_formula_sum   'H32 C40 S4 N8 O2'
_cell_volume   775.355329498
_cell_formula_units_Z   2
loop_
 _symmetry_equiv_pos_site_id
 _symmetry_equiv_pos_as_xyz
  1  'x, y, z'
loop_
 _atom_site_type_symbol
 _atom_site_label
 _atom_site_symmetry_multiplicity
 _atom_site_fract_x
 _atom_site_fract_y
 _atom_site_fract_z
 _atom_site_occupancy
  C  C1  1  0.994274  0.523306  0.275026  1
  C  C2  1  0.176285  0.462945  0.230023  1
  C  C3  1  0.763613  0.601495  0.253030  1
  C  C4  1  0.132805  0.473096  0.164214  1
  C  C5  1  0.719351  0.609852  0.188109  1
  C  C6  1  0.899107  0.544034  0.143456  1
  C  C7  1  0.906475  0.522766  0.021962  1
  C  C8  1  0.142341  0.450319  0.003037  1
  C  C9  1  0.727891  0.569119  0.975736  1
  C  C10  1  0.190982  0.428128  0.937493  1
  C  C11  1  0.777211  0.551409  0.911345  1
  C  C12  1  0.012131  0.479797  0.890953  1
  C  C13  1  0.949550  0.479771  0.770002  1
  C  C14  1  0.060865  0.467657  0.650421  1
  C  C15  1  0.271903  0.411954  0.614380  1
  C  C16  1  0.847905  0.540249  0.617561  1
  C  C17  1  0.267041  0.419938  0.548662  1
  C  C18  1  0.843754  0.547628  0.550713  1
  C  C19  1  0.052143  0.483063  0.515180  1
  C  C20  1  0.931417  0.520913  0.396442  1
  C  C21  1  0.012617  0.981310  0.580812  1
  C  C22  1  0.191781  0.930275  0.534286  1
  C  C23  1  0.777791  0.053070  0.560404  1
  C  C24  1  0.143640  0.953666  0.468748  1
  C  C25  1  0.728937  0.071844  0.496013  1
  C  C26  1  0.907939  0.026511  0.449812  1
  C  C27  1  0.900080  0.046595  0.328286  1
  C  C28  1  0.133430  0.974679  0.307487  1
  C  C29  1  0.719771  0.110956  0.283628  1
  C  C30  1  0.176218  0.962655  0.241663  1
  C  C31  1  0.763372  0.100905  0.218683  1
  C  C32  1  0.993844  0.022168  0.196688  1
  C  C33  1  0.930249  0.017708  0.075338  1
  C  C34  1  0.051021  0.980466  0.956579  1
  C  C35  1  0.266031  0.917727  0.923074  1
  C  C36  1  0.842785  0.045577  0.921071  1
  C  C37  1  0.271129  0.910613  0.857356  1
  C  C38  1  0.847161  0.039104  0.854219  1
  C  C39  1  0.060218  0.966829  0.821338  1
  C  C40  1  0.949379  0.980099  0.701757  1
  H  H41  1  0.356704  0.407334  0.246470  1
  H  H42  1  0.623047  0.655580  0.286303  1
  H  H43  1  0.278649  0.422691  0.131662  1
  H  H44  1  0.542492  0.668166  0.169911  1
  H  H45  1  0.287655  0.409390  0.036603  1
  H  H46  1  0.547464  0.621419  0.992352  1
  H  H47  1  0.372579  0.368752  0.922642  1
  H  H48  1  0.635857  0.592070  0.877190  1
  H  H49  1  0.265430  0.427763  0.820333  1
  H  H50  1  0.276322  0.404663  0.727272  1
  H  H51  1  0.439785  0.359684  0.638532  1
  H  H52  1  0.686146  0.594791  0.643622  1
  H  H53  1  0.432864  0.378885  0.522451  1
  H  H54  1  0.678877  0.606888  0.526781  1
  H  H55  1  0.259211  0.437618  0.436362  1
  H  H56  1  0.246042  0.476612  0.345741  1
  H  H57  1  0.373290  0.870700  0.549139  1
  H  H58  1  0.636154  0.093012  0.594550  1
  H  H59  1  0.289251  0.913542  0.435189  1
  H  H60  1  0.548630  0.124426  0.479388  1
  H  H61  1  0.279585  0.925262  0.340047  1
  H  H62  1  0.543116  0.169848  0.301840  1
  H  H63  1  0.356437  0.906514  0.225180  1
  H  H64  1  0.622453  0.154059  0.185388  1
  H  H65  1  0.245141  0.974563  0.125870  1
  H  H66  1  0.257943  0.934168  0.035349  1
  H  H67  1  0.431740  0.876323  0.949279  1
  H  H68  1  0.677821  0.104550  0.945020  1
  H  H69  1  0.439093  0.858616  0.833178  1
  H  H70  1  0.685507  0.094032  0.828178  1
  H  H71  1  0.275991  0.904784  0.744488  1
  H  H72  1  0.265476  0.928314  0.651448  1
  O  O73  1  0.808713  0.564246  0.082101  1
  O  O74  1  0.811272  0.070907  0.389716  1
  N  N75  1  0.081813  0.458560  0.825924  1
  N  N76  1  0.097401  0.446658  0.717314  1
  N  N77  1  0.081033  0.476465  0.447875  1
  N  N78  1  0.062294  0.506319  0.340221  1
  N  N79  1  0.061397  0.004133  0.131475  1
  N  N80  1  0.079768  0.973070  0.023880  1
  N  N81  1  0.097014  0.946608  0.754446  1
  N  N82  1  0.081895  0.959243  0.645843  1
  S  S83  1  0.646038  0.538544  0.764441  1
  S  S84  1  0.627834  0.587785  0.403071  1
  S  S85  1  0.626471  0.083445  0.068779  1
  S  S86  1  0.645837  0.038815  0.707300  1
 
# Source:                            Ma_etal:JMatterChemA.3.14845(2015)                                              
# Class:                             organic_polymer_crystal                                                         
# Label:                             NH-CS-NH-C6H4-NH-CS-NH-C6H4-O-C6H4                                              
# Structure prediction method used:  USPEX                                                                           
# Number of atoms:                    86
# Number of atom types:                5
# Atom types:                         C  H  O  N  S
# Dielectric constant, electronic:   4.52994E+00
# Dielectric constant, ionic:        1.43090E+00
# Dielectric constant, total:        5.96084E+00
# Band gap at the GGA level (eV):    2.06060E+00
# Band gap at the HSE06 level (eV):  2.93350E+00
# Atomization energy (eV/atom):     -6.13753E+00
# Volume of the unit cell (A^3):     7.75355E+02
