# generated using pymatgen
data_H16C20S2N4O
_symmetry_space_group_name_H-M   'P 1'
_cell_length_a   6.21256500
_cell_length_b   6.57341384
_cell_length_c   20.53545803
_cell_angle_alpha   95.32035709
_cell_angle_beta   94.06847030
_cell_angle_gamma   110.75152999
_symmetry_Int_Tables_number   1
_chemical_formula_structural   H16C20S2N4O
_chemical_formula_sum   'H32 C40 S4 N8 O2'
_cell_volume   775.971032866
_cell_formula_units_Z   2
loop_
 _symmetry_equiv_pos_site_id
 _symmetry_equiv_pos_as_xyz
  1  'x, y, z'
loop_
 _atom_site_type_symbol
 _atom_site_label
 _atom_site_symmetry_multiplicity
 _atom_site_fract_x
 _atom_site_fract_y
 _atom_site_fract_z
 _atom_site_occupancy
  C  C1  1  0.675946  0.228350  0.893207  1
  C  C2  1  0.619448  0.192515  0.769557  1
  C  C3  1  0.613448  0.323103  0.719949  1
  C  C4  1  0.644784  0.990369  0.753587  1
  C  C5  1  0.635158  0.257694  0.654712  1
  C  C6  1  0.670306  0.926462  0.689277  1
  C  C7  1  0.670913  0.061201  0.640384  1
  C  C8  1  0.691239  0.065334  0.520864  1
  C  C9  1  0.494231  0.107934  0.499901  1
  C  C10  1  0.858153  0.073999  0.478362  1
  C  C11  1  0.464557  0.149806  0.435222  1
  C  C12  1  0.828939  0.116364  0.413935  1
  C  C13  1  0.629847  0.154410  0.391316  1
  C  C14  1  0.683323  0.193623  0.269777  1
  C  C15  1  0.577697  0.234425  0.149463  1
  C  C16  1  0.393344  0.263005  0.112303  1
  C  C17  1  0.761604  0.215786  0.116894  1
  C  C18  1  0.392440  0.269264  0.045221  1
  C  C19  1  0.760303  0.221359  0.049036  1
  C  C20  1  0.575723  0.247431  0.012250  1
  C  C21  1  0.174117  0.727085  0.889203  1
  C  C22  1  0.119867  0.693040  0.765461  1
  C  C23  1  0.114472  0.823816  0.715820  1
  C  C24  1  0.145333  0.491006  0.749464  1
  C  C25  1  0.136298  0.758524  0.650620  1
  C  C26  1  0.171517  0.427389  0.685136  1
  C  C27  1  0.172216  0.562054  0.636224  1
  C  C28  1  0.192771  0.567001  0.516731  1
  C  C29  1  0.994987  0.608284  0.495867  1
  C  C30  1  0.360027  0.577415  0.474163  1
  C  C31  1  0.964911  0.651066  0.431273  1
  C  C32  1  0.329933  0.619579  0.409764  1
  C  C33  1  0.130023  0.656730  0.387265  1
  C  C34  1  0.181568  0.695071  0.265618  1
  C  C35  1  0.075168  0.735365  0.145346  1
  C  C36  1  0.892859  0.767662  0.108332  1
  C  C37  1  0.256901  0.712006  0.112587  1
  C  C38  1  0.891669  0.773057  0.041175  1
  C  C39  1  0.255306  0.716680  0.044727  1
  C  C40  1  0.072635  0.746493  0.008042  1
  H  H41  1  0.411774  0.295148  0.929332  1
  H  H42  1  0.481574  0.355856  0.836454  1
  H  H43  1  0.594402  0.478962  0.732621  1
  H  H44  1  0.633180  0.881343  0.790670  1
  H  H45  1  0.633813  0.363504  0.617373  1
  H  H46  1  0.686828  0.770313  0.675336  1
  H  H47  1  0.362616  0.101613  0.532393  1
  H  H48  1  0.010688  0.044212  0.496343  1
  H  H49  1  0.309627  0.177816  0.418134  1
  H  H50  1  0.960468  0.124690  0.381787  1
  H  H51  1  0.435775  0.240506  0.322678  1
  H  H52  1  0.414079  0.263422  0.229480  1
  H  H53  1  0.250217  0.279365  0.136641  1
  H  H54  1  0.905426  0.195904  0.144252  1
  H  H55  1  0.248894  0.290784  0.017424  1
  H  H56  1  0.903521  0.206424  0.025141  1
  H  H57  1  0.909254  0.793590  0.924913  1
  H  H58  1  0.985381  0.859839  0.832426  1
  H  H59  1  0.096470  0.980131  0.728475  1
  H  H60  1  0.134498  0.382028  0.786545  1
  H  H61  1  0.134835  0.864345  0.613311  1
  H  H62  1  0.189327  0.271731  0.671291  1
  H  H63  1  0.862905  0.599999  0.528371  1
  H  H64  1  0.513554  0.549284  0.492139  1
  H  H65  1  0.809623  0.678719  0.414316  1
  H  H66  1  0.461435  0.628855  0.377538  1
  H  H67  1  0.937014  0.745966  0.319033  1
  H  H68  1  0.911963  0.764862  0.225446  1
  H  H69  1  0.751385  0.787681  0.132772  1
  H  H70  1  0.398699  0.688016  0.139708  1
  H  H71  1  0.749855  0.797976  0.013537  1
  H  H72  1  0.396363  0.697124  0.020690  1
  O  O73  1  0.724678  0.985397  0.580081  1
  O  O74  1  0.227516  0.487529  0.575969  1
  N  N75  1  0.551211  0.255209  0.943442  1
  N  N76  1  0.580712  0.260591  0.833872  1
  N  N77  1  0.582456  0.204464  0.327351  1
  N  N78  1  0.553620  0.226090  0.217523  1
  N  N79  1  0.047919  0.752639  0.939141  1
  N  N80  1  0.081444  0.761769  0.829773  1
  N  N81  1  0.081978  0.707016  0.323376  1
  N  N82  1  0.051127  0.727047  0.213395  1
  S  S83  1  0.921397  0.171906  0.901033  1
  S  S84  1  0.933182  0.148322  0.263821  1
  S  S85  1  0.418919  0.669713  0.897544  1
  S  S86  1  0.431017  0.649468  0.259521  1
 
# Source:                            Ma_etal:JMatterChemA.3.14845(2015)                                              
# Class:                             organic_polymer_crystal                                                         
# Label:                             NH-CS-NH-C6H4-NH-CS-NH-C6H4-O-C6H4                                              
# Structure prediction method used:  USPEX                                                                           
# Number of atoms:                    86
# Number of atom types:                5
# Atom types:                         C  H  O  N  S
# Dielectric constant, electronic:   4.29483E+00
# Dielectric constant, ionic:        1.06298E+00
# Dielectric constant, total:        5.35780E+00
# Band gap at the GGA level (eV):    1.89320E+00
# Band gap at the HSE06 level (eV):  2.78160E+00
# Atomization energy (eV/atom):     -6.14356E+00
# Volume of the unit cell (A^3):     7.75971E+02
