# generated using pymatgen
data_H16C20S2N4O
_symmetry_space_group_name_H-M   'P 1'
_cell_length_a   5.40124461
_cell_length_b   6.90199330
_cell_length_c   20.82499021
_cell_angle_alpha   89.69905242
_cell_angle_beta   89.18338416
_cell_angle_gamma   89.98158529
_symmetry_Int_Tables_number   1
_chemical_formula_structural   H16C20S2N4O
_chemical_formula_sum   'H32 C40 S4 N8 O2'
_cell_volume   776.25260207
_cell_formula_units_Z   2
loop_
 _symmetry_equiv_pos_site_id
 _symmetry_equiv_pos_as_xyz
  1  'x, y, z'
loop_
 _atom_site_type_symbol
 _atom_site_label
 _atom_site_symmetry_multiplicity
 _atom_site_fract_x
 _atom_site_fract_y
 _atom_site_fract_z
 _atom_site_occupancy
  C  C1  1  0.661732  0.336529  0.906399  1
  C  C2  1  0.498091  0.273962  0.955272  1
  C  C3  1  0.882803  0.428739  0.924258  1
  C  C4  1  0.550794  0.295602  0.020496  1
  C  C5  1  0.936356  0.448269  0.988826  1
  C  C6  1  0.775317  0.381176  0.037201  1
  C  C7  1  0.781270  0.375487  0.159549  1
  C  C8  1  0.554956  0.293174  0.178783  1
  C  C9  1  0.948673  0.434439  0.206218  1
  C  C10  1  0.510052  0.262063  0.244403  1
  C  C11  1  0.903038  0.404454  0.271235  1
  C  C12  1  0.684350  0.310195  0.291193  1
  C  C13  1  0.752126  0.264326  0.411878  1
  C  C14  1  0.621426  0.235609  0.530487  1
  C  C15  1  0.409247  0.178013  0.565730  1
  C  C16  1  0.814404  0.323229  0.564063  1
  C  C17  1  0.396168  0.197429  0.631636  1
  C  C18  1  0.800826  0.343387  0.630947  1
  C  C19  1  0.594871  0.275108  0.666008  1
  C  C20  1  0.707979  0.324277  0.784014  1
  C  C21  1  0.287647  0.803966  0.740476  1
  C  C22  1  0.462061  0.756082  0.787446  1
  C  C23  1  0.068552  0.897709  0.760114  1
  C  C24  1  0.417426  0.787901  0.852954  1
  C  C25  1  0.023151  0.928195  0.824990  1
  C  C26  1  0.191211  0.870546  0.871873  1
  C  C27  1  0.197906  0.880015  0.994187  1
  C  C28  1  0.422520  0.794885  0.011358  1
  C  C29  1  0.037461  0.949284  0.042125  1
  C  C30  1  0.475909  0.775686  0.076690  1
  C  C31  1  0.091814  0.932395  0.106796  1
  C  C32  1  0.312864  0.840435  0.125177  1
  C  C33  1  0.266706  0.830512  0.247625  1
  C  C34  1  0.379429  0.780286  0.365798  1
  C  C35  1  0.578006  0.701663  0.400273  1
  C  C36  1  0.173146  0.847491  0.400738  1
  C  C37  1  0.564365  0.679938  0.466157  1
  C  C38  1  0.159012  0.825017  0.467618  1
  C  C39  1  0.351730  0.736132  0.501279  1
  C  C40  1  0.220229  0.760540  0.619842  1
  H  H41  1  0.323879  0.208478  0.942263  1
  H  H42  1  0.010832  0.483527  0.888459  1
  H  H43  1  0.416696  0.244150  0.055503  1
  H  H44  1  0.107467  0.515306  0.003146  1
  H  H45  1  0.414060  0.251848  0.145274  1
  H  H46  1  0.118819  0.502634  0.190124  1
  H  H47  1  0.335374  0.197587  0.259241  1
  H  H48  1  0.037360  0.450278  0.305754  1
  H  H49  1  0.436734  0.228314  0.360896  1
  H  H50  1  0.438660  0.150120  0.451439  1
  H  H51  1  0.252090  0.118946  0.540940  1
  H  H52  1  0.977188  0.375675  0.538990  1
  H  H53  1  0.229716  0.151503  0.656929  1
  H  H54  1  0.952987  0.410193  0.655119  1
  H  H55  1  0.383677  0.232915  0.746209  1
  H  H56  1  0.404510  0.262566  0.839828  1
  H  H57  1  0.636712  0.691417  0.772862  1
  H  H58  1  0.933788  0.942859  0.725454  1
  H  H59  1  0.558457  0.746843  0.886615  1
  H  H60  1  0.852754  0.996035  0.840846  1
  H  H61  1  0.556134  0.742090  0.976619  1
  H  H62  1  0.866366  0.016048  0.027392  1
  H  H63  1  0.650117  0.710410  0.090070  1
  H  H64  1  0.964401  0.988873  0.142277  1
  H  H65  1  0.570380  0.768367  0.192160  1
  H  H66  1  0.591346  0.740155  0.285779  1
  H  H67  1  0.744710  0.656596  0.375064  1
  H  H68  1  0.021188  0.915186  0.376480  1
  H  H69  1  0.721369  0.620070  0.491025  1
  H  H70  1  0.996002  0.876654  0.492611  1
  H  H71  1  0.533933  0.647588  0.580360  1
  H  H72  1  0.535144  0.722209  0.670985  1
  O  O73  1  0.873603  0.412838  0.097795  1
  O  O74  1  0.099220  0.909456  0.933427  1
  N  N75  1  0.620683  0.260514  0.355565  1
  N  N76  1  0.608656  0.202309  0.463313  1
  N  N77  1  0.559639  0.274117  0.733795  1
  N  N78  1  0.585705  0.303638  0.842377  1
  N  N79  1  0.389228  0.809555  0.189384  1
  N  N80  1  0.415204  0.780973  0.298044  1
  N  N81  1  0.363993  0.700241  0.568444  1
  N  N82  1  0.351225  0.754508  0.676242  1
  S  S83  1  0.048046  0.338880  0.418867  1
  S  S84  1  0.000332  0.406148  0.774577  1
  S  S85  1  0.974322  0.912621  0.256723  1
  S  S86  1  0.924400  0.835445  0.612670  1
 
# Source:                            Ma_etal:JMatterChemA.3.14845(2015)                                              
# Class:                             organic_polymer_crystal                                                         
# Label:                             NH-CS-NH-C6H4-NH-CS-NH-C6H4-O-C6H4                                              
# Structure prediction method used:  USPEX                                                                           
# Number of atoms:                    86
# Number of atom types:                5
# Atom types:                         C  H  O  N  S
# Dielectric constant, electronic:   4.43415E+00
# Dielectric constant, ionic:        8.74556E-01
# Dielectric constant, total:        5.30871E+00
# Band gap at the GGA level (eV):    2.17460E+00
# Band gap at the HSE06 level (eV):  3.12160E+00
# Atomization energy (eV/atom):     -6.14196E+00
# Volume of the unit cell (A^3):     7.76253E+02
