# generated using pymatgen
data_H16C20S2N4O
_symmetry_space_group_name_H-M   'P 1'
_cell_length_a   5.46927990
_cell_length_b   7.00205196
_cell_length_c   20.42252366
_cell_angle_alpha   92.35602815
_cell_angle_beta   91.48710249
_cell_angle_gamma   90.19551784
_symmetry_Int_Tables_number   1
_chemical_formula_structural   H16C20S2N4O
_chemical_formula_sum   'H32 C40 S4 N8 O2'
_cell_volume   781.172498681
_cell_formula_units_Z   2
loop_
 _symmetry_equiv_pos_site_id
 _symmetry_equiv_pos_as_xyz
  1  'x, y, z'
loop_
 _atom_site_type_symbol
 _atom_site_label
 _atom_site_symmetry_multiplicity
 _atom_site_fract_x
 _atom_site_fract_y
 _atom_site_fract_z
 _atom_site_occupancy
  C  C1  1  0.859306  0.686821  0.478186  1
  C  C2  1  0.845519  0.638652  0.354758  1
  C  C3  1  0.613050  0.559315  0.340903  1
  C  C4  1  0.985232  0.700026  0.303219  1
  C  C5  1  0.526445  0.543251  0.276313  1
  C  C6  1  0.899290  0.684698  0.238117  1
  C  C7  1  0.667092  0.606612  0.225104  1
  C  C8  1  0.664798  0.608884  0.104106  1
  C  C9  1  0.895160  0.534713  0.089490  1
  C  C10  1  0.516978  0.680613  0.054403  1
  C  C11  1  0.969240  0.532198  0.024537  1
  C  C12  1  0.589538  0.676598  0.989635  1
  C  C13  1  0.820833  0.603949  0.974011  1
  C  C14  1  0.852023  0.681514  0.853196  1
  C  C15  1  0.985749  0.673102  0.735462  1
  C  C16  1  0.187327  0.745810  0.703506  1
  C  C17  1  0.781122  0.605417  0.698663  1
  C  C18  1  0.187464  0.746034  0.635478  1
  C  C19  1  0.781087  0.605428  0.630321  1
  C  C20  1  0.985959  0.673717  0.598516  1
  C  C21  1  0.128547  0.195501  0.475710  1
  C  C22  1  0.131685  0.143111  0.353108  1
  C  C23  1  0.001064  0.204693  0.298218  1
  C  C24  1  0.361092  0.057414  0.344658  1
  C  C25  1  0.093935  0.182867  0.235191  1
  C  C26  1  0.455144  0.036329  0.282312  1
  C  C27  1  0.324040  0.100425  0.227734  1
  C  C28  1  0.341038  0.102752  0.107229  1
  C  C29  1  0.109206  0.033179  0.087713  1
  C  C30  1  0.496187  0.173475  0.060914  1
  C  C31  1  0.040169  0.035805  0.021510  1
  C  C32  1  0.428932  0.174030  0.994759  1
  C  C33  1  0.196066  0.106282  0.974236  1
  C  C34  1  0.174237  0.186818  0.852880  1
  C  C35  1  0.019514  0.175461  0.733432  1
  C  C36  1  0.810110  0.110287  0.697391  1
  C  C37  1  0.216452  0.246854  0.699297  1
  C  C38  1  0.803206  0.109189  0.629729  1
  C  C39  1  0.209302  0.246175  0.630901  1
  C  C40  1  0.004968  0.174031  0.595126  1
  H  H41  1  0.186570  0.605642  0.517243  1
  H  H42  1  0.139263  0.604168  0.419451  1
  H  H43  1  0.507896  0.501231  0.379670  1
  H  H44  1  0.164708  0.759190  0.313822  1
  H  H45  1  0.349585  0.480030  0.264525  1
  H  H46  1  0.012263  0.735411  0.199637  1
  H  H47  1  0.014968  0.476437  0.126646  1
  H  H48  1  0.339254  0.734866  0.066824  1
  H  H49  1  0.146282  0.473496  0.013012  1
  H  H50  1  0.469040  0.730743  0.952236  1
  H  H51  1  0.079617  0.520421  0.907900  1
  H  H52  1  0.174787  0.581450  0.817085  1
  H  H53  1  0.343832  0.799826  0.732242  1
  H  H54  1  0.628590  0.543751  0.723269  1
  H  H55  1  0.343899  0.800637  0.610516  1
  H  H56  1  0.629049  0.543639  0.601744  1
  H  H57  1  0.821168  0.083729  0.511722  1
  H  H58  1  0.832908  0.135447  0.414083  1
  H  H59  1  0.823833  0.268992  0.304248  1
  H  H60  1  0.458253  0.997868  0.385850  1
  H  H61  1  0.987631  0.233047  0.193982  1
  H  H62  1  0.630001  0.968772  0.274902  1
  H  H63  1  0.985059  0.974153  0.122163  1
  H  H64  1  0.675390  0.223186  0.077097  1
  H  H65  1  0.861246  0.982050  0.006211  1
  H  H66  1  0.554632  0.227442  0.960030  1
  H  H67  1  0.937052  0.029866  0.903941  1
  H  H68  1  0.857768  0.075911  0.813566  1
  H  H69  1  0.656381  0.054012  0.722985  1
  H  H70  1  0.377065  0.300916  0.725540  1
  H  H71  1  0.643818  0.052956  0.602826  1
  H  H72  1  0.364270  0.299926  0.605827  1
  O  O73  1  0.547088  0.595494  0.163911  1
  O  O74  1  0.451271  0.085426  0.169355  1
  N  N75  1  0.015696  0.652376  0.529380  1
  N  N76  1  0.958414  0.639522  0.418564  1
  N  N77  1  0.920029  0.595734  0.910330  1
  N  N78  1  0.013578  0.647317  0.804373  1
  N  N79  1  0.980308  0.153430  0.525906  1
  N  N80  1  0.018124  0.152903  0.415115  1
  N  N81  1  0.100307  0.101540  0.908966  1
  N  N82  1  0.010649  0.152140  0.801944  1
  S  S83  1  0.581749  0.792136  0.486474  1
  S  S84  1  0.606402  0.828346  0.844571  1
  S  S85  1  0.409262  0.299486  0.483875  1
  S  S86  1  0.426804  0.328333  0.849343  1
 
# Source:                            Ma_etal:JMatterChemA.3.14845(2015)                                              
# Class:                             organic_polymer_crystal                                                         
# Label:                             NH-CS-NH-C6H4-NH-CS-NH-C6H4-O-C6H4                                              
# Structure prediction method used:  USPEX                                                                           
# Number of atoms:                    86
# Number of atom types:                5
# Atom types:                         C  H  O  N  S
# Dielectric constant, electronic:   4.18904E+00
# Dielectric constant, ionic:        1.75342E+00
# Dielectric constant, total:        5.94246E+00
# Band gap at the GGA level (eV):    2.06770E+00
# Band gap at the HSE06 level (eV):  2.99520E+00
# Atomization energy (eV/atom):     -6.15093E+00
# Volume of the unit cell (A^3):     7.81172E+02
