# generated using pymatgen
data_H18C21(SN2)2
_symmetry_space_group_name_H-M   'P 1'
_cell_length_a   5.54836259
_cell_length_b   7.00084394
_cell_length_c   20.83729687
_cell_angle_alpha   88.36139193
_cell_angle_beta   90.03249986
_cell_angle_gamma   89.96021518
_symmetry_Int_Tables_number   1
_chemical_formula_structural   H18C21(SN2)2
_chemical_formula_sum   'H36 C42 S4 N8'
_cell_volume   809.05640428
_cell_formula_units_Z   2
loop_
 _symmetry_equiv_pos_site_id
 _symmetry_equiv_pos_as_xyz
  1  'x, y, z'
loop_
 _atom_site_type_symbol
 _atom_site_label
 _atom_site_symmetry_multiplicity
 _atom_site_fract_x
 _atom_site_fract_y
 _atom_site_fract_z
 _atom_site_occupancy
  C  C1  1  0.980774  0.509071  0.644193  1
  C  C2  1  0.841207  0.432768  0.694576  1
  C  C3  1  0.204253  0.591475  0.658437  1
  C  C4  1  0.920868  0.440837  0.758297  1
  C  C5  1  0.282129  0.595438  0.721662  1
  C  C6  1  0.143952  0.522057  0.773354  1
  C  C7  1  0.266357  0.535569  0.838599  1
  C  C8  1  0.143858  0.515565  0.903903  1
  C  C9  1  0.919951  0.433665  0.919208  1
  C  C10  1  0.282777  0.581125  0.955372  1
  C  C11  1  0.841061  0.416023  0.982954  1
  C  C12  1  0.205187  0.568394  0.018630  1
  C  C13  1  0.981545  0.484272  0.033114  1
  C  C14  1  0.998172  0.472977  0.154009  1
  C  C15  1  0.880641  0.485255  0.271528  1
  C  C16  1  0.685241  0.411753  0.307108  1
  C  C17  1  0.083263  0.553800  0.303667  1
  C  C18  1  0.686135  0.418912  0.373662  1
  C  C19  1  0.083794  0.561600  0.370561  1
  C  C20  1  0.882039  0.499802  0.405728  1
  C  C21  1  0.998981  0.503119  0.523485  1
  C  C22  1  0.482985  0.010406  0.649555  1
  C  C23  1  0.344463  0.087210  0.698748  1
  C  C24  1  0.706702  0.927897  0.665073  1
  C  C25  1  0.425810  0.079468  0.762495  1
  C  C26  1  0.786007  0.923744  0.728280  1
  C  C27  1  0.649276  0.997484  0.778763  1
  C  C28  1  0.774304  0.990604  0.843996  1
  C  C29  1  0.648499  0.989906  0.909084  1
  C  C30  1  0.425414  0.070456  0.924882  1
  C  C31  1  0.784123  0.908175  0.959930  1
  C  C32  1  0.343072  0.068774  0.988551  1
  C  C33  1  0.704018  0.903313  0.023034  1
  C  C34  1  0.480600  0.984276  0.038113  1
  C  C35  1  0.498176  0.973221  0.159010  1
  C  C36  1  0.380883  0.966041  0.276894  1
  C  C37  1  0.184633  0.045945  0.309080  1
  C  C38  1  0.582286  0.903430  0.312204  1
  C  C39  1  0.183920  0.053135  0.375659  1
  C  C40  1  0.581958  0.911291  0.379165  1
  C  C41  1  0.379925  0.980716  0.411369  1
  C  C42  1  0.498635  0.003847  0.528696  1
  H  H43  1  0.667888  0.369150  0.684323  1
  H  H44  1  0.312378  0.655387  0.620596  1
  H  H45  1  0.802580  0.382858  0.794989  1
  H  H46  1  0.454502  0.660452  0.731682  1
  H  H47  1  0.414630  0.430301  0.839052  1
  H  H48  1  0.360601  0.673676  0.838039  1
  H  H49  1  0.800502  0.382838  0.882585  1
  H  H50  1  0.455396  0.647198  0.945187  1
  H  H51  1  0.667331  0.351780  0.993453  1
  H  H52  1  0.313684  0.626768  0.056263  1
  H  H53  1  0.698842  0.461817  0.097107  1
  H  H54  1  0.669571  0.528052  0.191885  1
  H  H55  1  0.530888  0.353816  0.282539  1
  H  H56  1  0.235689  0.608013  0.276786  1
  H  H57  1  0.532305  0.366550  0.400778  1
  H  H58  1  0.236257  0.623014  0.394580  1
  H  H59  1  0.671401  0.556084  0.483541  1
  H  H60  1  0.698428  0.496573  0.579979  1
  H  H61  1  0.171050  0.151284  0.687526  1
  H  H62  1  0.814153  0.863746  0.628366  1
  H  H63  1  0.309983  0.139415  0.798403  1
  H  H64  1  0.958728  0.858633  0.739105  1
  H  H65  1  0.890368  0.863524  0.844472  1
  H  H66  1  0.903591  0.110259  0.843715  1
  H  H67  1  0.310576  0.136777  0.888756  1
  H  H68  1  0.956556  0.844065  0.949420  1
  H  H69  1  0.169906  0.131912  0.999381  1
  H  H70  1  0.810527  0.833366  0.060090  1
  H  H71  1  0.197646  0.988082  0.102430  1
  H  H72  1  0.171673  0.912817  0.198370  1
  H  H73  1  0.030425  0.098272  0.282036  1
  H  H74  1  0.734931  0.842032  0.288245  1
  H  H75  1  0.029372  0.111085  0.400111  1
  H  H76  1  0.734738  0.857158  0.406027  1
  H  H77  1  0.170643  0.941948  0.491563  1
  H  H78  1  0.199632  0.023781  0.585336  1
  N  N79  1  0.881176  0.482219  0.095566  1
  N  N80  1  0.846432  0.506634  0.203877  1
  N  N81  1  0.848642  0.534939  0.472347  1
  N  N82  1  0.881008  0.515599  0.581488  1
  N  N83  1  0.380101  0.968403  0.100708  1
  N  N84  1  0.348639  0.934116  0.209859  1
  N  N85  1  0.347223  0.962945  0.479289  1
  N  N86  1  0.381883  0.002971  0.587196  1
  S  S87  1  0.290786  0.410663  0.163451  1
  S  S88  1  0.291644  0.440942  0.515924  1
  S  S89  1  0.790707  0.034243  0.167550  1
  S  S90  1  0.791242  0.064192  0.518317  1
 
# Source:                            Ma_etal:JMatterChemA.3.14845(2015)                                              
# Class:                             organic_polymer_crystal                                                         
# Label:                             NH-CS-NH-C6H4-NH-CS-NH-C6H4-CH2-C6H4                                            
# Structure prediction method used:  USPEX                                                                           
# Number of atoms:                    90
# Number of atom types:                4
# Atom types:                         C  H  N  S
# Dielectric constant, electronic:   3.93782E+00
# Dielectric constant, ionic:        6.93408E-01
# Dielectric constant, total:        4.63123E+00
# Band gap at the GGA level (eV):    2.53370E+00
# Band gap at the HSE06 level (eV):  3.60120E+00
# Atomization energy (eV/atom):     -6.08920E+00
# Volume of the unit cell (A^3):     8.09056E+02
