# generated using pymatgen
data_H18C21(SN2)2
_symmetry_space_group_name_H-M   'P 1'
_cell_length_a   3.70052481
_cell_length_b   10.70845006
_cell_length_c   20.75487551
_cell_angle_alpha   89.24961955
_cell_angle_beta   87.15813242
_cell_angle_gamma   82.05002899
_symmetry_Int_Tables_number   1
_chemical_formula_structural   H18C21(SN2)2
_chemical_formula_sum   'H36 C42 S4 N8'
_cell_volume   813.528732795
_cell_formula_units_Z   2
loop_
 _symmetry_equiv_pos_site_id
 _symmetry_equiv_pos_as_xyz
  1  'x, y, z'
loop_
 _atom_site_type_symbol
 _atom_site_label
 _atom_site_symmetry_multiplicity
 _atom_site_fract_x
 _atom_site_fract_y
 _atom_site_fract_z
 _atom_site_occupancy
  C  C1  1  0.059189  0.763422  0.967024  1
  C  C2  1  0.131486  0.660052  0.009445  1
  C  C3  1  0.856460  0.874562  0.990914  1
  C  C4  1  0.991593  0.666001  0.072867  1
  C  C5  1  0.722849  0.878929  0.055132  1
  C  C6  1  0.781008  0.776053  0.097210  1
  C  C7  1  0.573060  0.780298  0.162461  1
  C  C8  1  0.762280  0.765536  0.226031  1
  C  C9  1  0.931684  0.647980  0.247273  1
  C  C10  1  0.727210  0.865726  0.269509  1
  C  C11  1  0.052359  0.632060  0.309569  1
  C  C12  1  0.844601  0.851411  0.332522  1
  C  C13  1  0.002491  0.732489  0.353459  1
  C  C14  1  0.132105  0.768642  0.471501  1
  C  C15  1  0.157560  0.724250  0.592302  1
  C  C16  1  0.321467  0.620697  0.627404  1
  C  C17  1  0.038490  0.837536  0.624455  1
  C  C18  1  0.359659  0.629303  0.693084  1
  C  C19  1  0.078268  0.846926  0.690868  1
  C  C20  1  0.235406  0.742250  0.726067  1
  C  C21  1  0.138747  0.808361  0.845422  1
  C  C22  1  0.082158  0.263539  0.966468  1
  C  C23  1  0.138921  0.156640  0.006810  1
  C  C24  1  0.883883  0.374644  0.991511  1
  C  C25  1  0.989686  0.159532  0.069485  1
  C  C26  1  0.738562  0.375666  0.055011  1
  C  C27  1  0.782712  0.269018  0.094812  1
  C  C28  1  0.566742  0.266561  0.158746  1
  C  C29  1  0.744018  0.261910  0.223361  1
  C  C30  1  0.951905  0.152570  0.246711  1
  C  C31  1  0.654631  0.362496  0.265893  1
  C  C32  1  0.056034  0.144338  0.310130  1
  C  C33  1  0.751373  0.355835  0.330169  1
  C  C34  1  0.949787  0.244898  0.353235  1
  C  C35  1  0.982760  0.285350  0.474673  1
  C  C36  1  0.144712  0.231110  0.591915  1
  C  C37  1  0.327777  0.127451  0.625166  1
  C  C38  1  0.012474  0.340415  0.626565  1
  C  C39  1  0.365850  0.132193  0.690958  1
  C  C40  1  0.050900  0.345285  0.693066  1
  C  C41  1  0.223173  0.240906  0.726240  1
  C  C42  1  0.150100  0.308178  0.845251  1
  H  H43  1  0.290459  0.573771  0.991499  1
  H  H44  1  0.799703  0.955103  0.959562  1
  H  H45  1  0.040931  0.582626  0.103289  1
  H  H46  1  0.557560  0.964478  0.072328  1
  H  H47  1  0.381964  0.868186  0.164446  1
  H  H48  1  0.402004  0.705030  0.161843  1
  H  H49  1  0.960342  0.566874  0.215542  1
  H  H50  1  0.590053  0.956755  0.254670  1
  H  H51  1  0.172198  0.540096  0.326058  1
  H  H52  1  0.798856  0.929418  0.365630  1
  H  H53  1  0.074775  0.605561  0.426999  1
  H  H54  1  0.040918  0.609404  0.520418  1
  H  H55  1  0.409316  0.532591  0.602722  1
  H  H56  1  0.908919  0.917594  0.597996  1
  H  H57  1  0.477559  0.547476  0.719861  1
  H  H58  1  0.983829  0.934330  0.715190  1
  H  H59  1  0.383032  0.644513  0.806097  1
  H  H60  1  0.309317  0.650144  0.896374  1
  H  H61  1  0.289146  0.070059  0.987523  1
  H  H62  1  0.837877  0.457648  0.961530  1
  H  H63  1  0.024464  0.074029  0.098511  1
  H  H64  1  0.576417  0.461207  0.073224  1
  H  H65  1  0.350490  0.347431  0.159497  1
  H  H66  1  0.426258  0.183351  0.157509  1
  H  H67  1  0.027052  0.071490  0.215504  1
  H  H68  1  0.493223  0.447523  0.248918  1
  H  H69  1  0.213679  0.058742  0.327527  1
  H  H70  1  0.669390  0.434308  0.362053  1
  H  H71  1  0.195886  0.132494  0.421638  1
  H  H72  1  0.184400  0.117647  0.514350  1
  H  H73  1  0.432692  0.042170  0.598921  1
  H  H74  1  0.875199  0.421017  0.602054  1
  H  H75  1  0.501224  0.050827  0.715996  1
  H  H76  1  0.944842  0.429846  0.718969  1
  H  H77  1  0.337561  0.137797  0.806409  1
  H  H78  1  0.368805  0.156521  0.896791  1
  N  N79  1  0.088201  0.699025  0.417889  1
  N  N80  1  0.090971  0.699951  0.526971  1
  N  N81  1  0.279339  0.734411  0.793727  1
  N  N82  1  0.196349  0.741967  0.902460  1
  N  N83  1  0.060072  0.221562  0.417232  1
  N  N84  1  0.107235  0.210502  0.525432  1
  N  N85  1  0.258669  0.229707  0.793858  1
  N  N86  1  0.234023  0.245727  0.902562  1
  S  S87  1  0.256741  0.914522  0.469749  1
  S  S88  1  0.938893  0.959596  0.839329  1
  S  S89  1  0.756226  0.433669  0.481503  1
  S  S90  1  0.956810  0.460268  0.839941  1
 
# Source:                            Ma_etal:JMatterChemA.3.14845(2015)                                              
# Class:                             organic_polymer_crystal                                                         
# Label:                             NH-CS-NH-C6H4-NH-CS-NH-C6H4-CH2-C6H4                                            
# Structure prediction method used:  USPEX                                                                           
# Number of atoms:                    90
# Number of atom types:                4
# Atom types:                         C  H  N  S
# Dielectric constant, electronic:   4.02387E+00
# Dielectric constant, ionic:        6.88490E-01
# Dielectric constant, total:        4.71236E+00
# Band gap at the GGA level (eV):    2.14970E+00
# Band gap at the HSE06 level (eV):  3.14100E+00
# Atomization energy (eV/atom):     -6.08604E+00
# Volume of the unit cell (A^3):     8.13529E+02
