# generated using pymatgen
data_H18C21(SN2)2
_symmetry_space_group_name_H-M   'P 1'
_cell_length_a   5.70192463
_cell_length_b   6.85541197
_cell_length_c   20.79821775
_cell_angle_alpha   94.31768090
_cell_angle_beta   90.09578316
_cell_angle_gamma   93.39934983
_symmetry_Int_Tables_number   1
_chemical_formula_structural   H18C21(SN2)2
_chemical_formula_sum   'H36 C42 S4 N8'
_cell_volume   809.233372325
_cell_formula_units_Z   2
loop_
 _symmetry_equiv_pos_site_id
 _symmetry_equiv_pos_as_xyz
  1  'x, y, z'
loop_
 _atom_site_type_symbol
 _atom_site_label
 _atom_site_symmetry_multiplicity
 _atom_site_fract_x
 _atom_site_fract_y
 _atom_site_fract_z
 _atom_site_occupancy
  C  C1  1  0.350895  0.216858  0.226752  1
  C  C2  1  0.172018  0.131277  0.185204  1
  C  C3  1  0.573068  0.262132  0.201376  1
  C  C4  1  0.217931  0.078510  0.120933  1
  C  C5  1  0.616264  0.206458  0.136663  1
  C  C6  1  0.444296  0.109790  0.095974  1
  C  C7  1  0.510761  0.013139  0.031079  1
  C  C8  1  0.449894  0.098764  0.968338  1
  C  C9  1  0.224384  0.067488  0.941149  1
  C  C10  1  0.626263  0.183660  0.931011  1
  C  C11  1  0.182191  0.111885  0.878306  1
  C  C12  1  0.587121  0.230216  0.867760  1
  C  C13  1  0.363859  0.188660  0.840204  1
  C  C14  1  0.422500  0.243504  0.720895  1
  C  C15  1  0.298297  0.257828  0.602404  1
  C  C16  1  0.092599  0.204811  0.566226  1
  C  C17  1  0.496246  0.335149  0.570972  1
  C  C18  1  0.089813  0.215821  0.500464  1
  C  C19  1  0.493316  0.346431  0.503873  1
  C  C20  1  0.292444  0.280195  0.467791  1
  C  C21  1  0.408438  0.277460  0.348533  1
  C  C22  1  0.904990  0.733984  0.234635  1
  C  C23  1  0.736377  0.750826  0.186023  1
  C  C24  1  0.117893  0.653414  0.216649  1
  C  C25  1  0.775575  0.681477  0.122405  1
  C  C26  1  0.155457  0.589301  0.152427  1
  C  C27  1  0.987062  0.598295  0.103858  1
  C  C28  1  0.033791  0.492272  0.038314  1
  C  C29  1  0.989292  0.581538  0.974886  1
  C  C30  1  0.773934  0.652391  0.957756  1
  C  C31  1  0.159480  0.568365  0.926559  1
  C  C32  1  0.734573  0.713586  0.896519  1
  C  C33  1  0.121330  0.622756  0.864181  1
  C  C34  1  0.906961  0.697962  0.848359  1
  C  C35  1  0.955309  0.752253  0.728275  1
  C  C36  1  0.822942  0.779563  0.611160  1
  C  C37  1  0.630217  0.849859  0.579181  1
  C  C38  1  0.007344  0.706311  0.573794  1
  C  C39  1  0.628378  0.856889  0.512844  1
  C  C40  1  0.005100  0.713021  0.506684  1
  C  C41  1  0.819370  0.793271  0.475424  1
  C  C42  1  0.951353  0.787746  0.357298  1
  H  H43  1  0.998415  0.101556  0.204408  1
  H  H44  1  0.709746  0.336814  0.231364  1
  H  H45  1  0.079933  0.003231  0.090885  1
  H  H46  1  0.791668  0.233655  0.118451  1
  H  H47  1  0.700419  0.996136  0.031635  1
  H  H48  1  0.426390  0.864586  0.028519  1
  H  H49  1  0.083849  0.998147  0.968056  1
  H  H50  1  0.801630  0.209456  0.950790  1
  H  H51  1  0.008977  0.082518  0.857177  1
  H  H52  1  0.726486  0.297660  0.840640  1
  H  H53  1  0.118997  0.214725  0.771018  1
  H  H54  1  0.106396  0.179247  0.678382  1
  H  H55  1  0.935059  0.153521  0.590199  1
  H  H56  1  0.653517  0.383942  0.597792  1
  H  H57  1  0.929997  0.174008  0.473483  1
  H  H58  1  0.647845  0.404748  0.480487  1
  H  H59  1  0.089594  0.238220  0.388497  1
  H  H60  1  0.104660  0.242336  0.296658  1
  H  H61  1  0.570833  0.814061  0.198563  1
  H  H62  1  0.251478  0.638259  0.252246  1
  H  H63  1  0.634665  0.688134  0.087925  1
  H  H64  1  0.320153  0.524840  0.140376  1
  H  H65  1  0.216832  0.451864  0.038443  1
  H  H66  1  0.930014  0.351048  0.036643  1
  H  H67  1  0.630814  0.653501  0.991640  1
  H  H68  1  0.325363  0.508216  0.937110  1
  H  H69  1  0.566591  0.769253  0.885146  1
  H  H70  1  0.256146  0.606237  0.828351  1
  H  H71  1  0.668600  0.784510  0.785263  1
  H  H72  1  0.642363  0.826299  0.694011  1
  H  H73  1  0.481411  0.899572  0.606853  1
  H  H74  1  0.153756  0.644986  0.596226  1
  H  H75  1  0.478655  0.913175  0.489677  1
  H  H76  1  0.150655  0.657616  0.479501  1
  H  H77  1  0.636132  0.851835  0.396139  1
  H  H78  1  0.666083  0.825164  0.301478  1
  N  N79  1  0.297174  0.224890  0.776878  1
  N  N80  1  0.275214  0.223953  0.668479  1
  N  N81  1  0.261274  0.272835  0.400154  1
  N  N82  1  0.282794  0.256118  0.291567  1
  N  N83  1  0.843132  0.759379  0.787304  1
  N  N84  1  0.804671  0.787230  0.679410  1
  N  N85  1  0.800029  0.814641  0.408176  1
  N  N86  1  0.839645  0.796659  0.298524  1
  S  S87  1  0.716860  0.287719  0.716731  1
  S  S88  1  0.704105  0.310577  0.354604  1
  S  S89  1  0.241882  0.709585  0.717151  1
  S  S90  1  0.240316  0.753665  0.366147  1
 
# Source:                            Ma_etal:JMatterChemA.3.14845(2015)                                              
# Class:                             organic_polymer_crystal                                                         
# Label:                             NH-CS-NH-C6H4-NH-CS-NH-C6H4-CH2-C6H4                                            
# Structure prediction method used:  USPEX                                                                           
# Number of atoms:                    90
# Number of atom types:                4
# Atom types:                         C  H  N  S
# Dielectric constant, electronic:   4.07826E+00
# Dielectric constant, ionic:        6.85726E-01
# Dielectric constant, total:        4.76399E+00
# Band gap at the GGA level (eV):    2.27030E+00
# Band gap at the HSE06 level (eV):  3.13280E+00
# Atomization energy (eV/atom):     -6.08792E+00
# Volume of the unit cell (A^3):     8.09233E+02
