# generated using pymatgen
data_H10C7SN2
_symmetry_space_group_name_H-M   'P 1'
_cell_length_a   7.35828534
_cell_length_b   8.68609791
_cell_length_c   11.21953693
_cell_angle_alpha   74.74831937
_cell_angle_beta   80.35945126
_cell_angle_gamma   83.16459885
_symmetry_Int_Tables_number   1
_chemical_formula_structural   H10C7SN2
_chemical_formula_sum   'H40 C28 S4 N8'
_cell_volume   679.94601876
_cell_formula_units_Z   4
loop_
 _symmetry_equiv_pos_site_id
 _symmetry_equiv_pos_as_xyz
  1  'x, y, z'
loop_
 _atom_site_type_symbol
 _atom_site_label
 _atom_site_symmetry_multiplicity
 _atom_site_fract_x
 _atom_site_fract_y
 _atom_site_fract_z
 _atom_site_occupancy
  C  C1  1  0.053678  0.910831  0.335542  1
  C  C2  1  0.968672  0.062477  0.335670  1
  C  C3  1  0.151963  0.874392  0.226390  1
  C  C4  1  0.981301  0.185032  0.224749  1
  C  C5  1  0.170224  0.997514  0.116225  1
  C  C6  1  0.084665  0.150006  0.116422  1
  C  C7  1  0.351320  0.631370  0.171972  1
  C  C8  1  0.830874  0.429024  0.301841  1
  C  C9  1  0.678187  0.684453  0.337770  1
  C  C10  1  0.629676  0.857541  0.269998  1
  C  C11  1  0.532233  0.949693  0.365581  1
  C  C12  1  0.474098  0.123317  0.304416  1
  C  C13  1  0.390140  0.221497  0.398057  1
  C  C14  1  0.286088  0.378766  0.339358  1
  C  C15  1  0.035643  0.044508  0.709124  1
  C  C16  1  0.120668  0.892863  0.708993  1
  C  C17  1  0.937344  0.080944  0.818265  1
  C  C18  1  0.108012  0.770304  0.819921  1
  C  C19  1  0.919044  0.957816  0.928434  1
  C  C20  1  0.004616  0.805323  0.928232  1
  C  C21  1  0.738012  0.323984  0.872683  1
  C  C22  1  0.258462  0.526320  0.742824  1
  C  C23  1  0.411105  0.270882  0.706887  1
  C  C24  1  0.459625  0.097798  0.774664  1
  C  C25  1  0.557099  0.005652  0.679085  1
  C  C26  1  0.615213  0.832020  0.740243  1
  C  C27  1  0.699179  0.733849  0.646596  1
  C  C28  1  0.803253  0.576586  0.705285  1
  H  H29  1  0.041481  0.817809  0.422212  1
  H  H30  1  0.891512  0.084802  0.420749  1
  H  H31  1  0.248561  0.974846  0.031491  1
  H  H32  1  0.155730  0.639783  0.320277  1
  H  H33  1  0.871547  0.398975  0.124226  1
  H  H34  1  0.095802  0.242621  0.029288  1
  H  H35  1  0.470549  0.413791  0.165857  1
  H  H36  1  0.735292  0.616630  0.165656  1
  H  H37  1  0.554096  0.628351  0.392041  1
  H  H38  1  0.770725  0.681577  0.405045  1
  H  H39  1  0.755596  0.913805  0.220260  1
  H  H40  1  0.541115  0.864365  0.199530  1
  H  H41  1  0.410409  0.888984  0.419000  1
  H  H42  1  0.624871  0.947273  0.432806  1
  H  H43  1  0.596416  0.178761  0.248228  1
  H  H44  1  0.376283  0.126123  0.240099  1
  H  H45  1  0.288401  0.153529  0.469382  1
  H  H46  1  0.498121  0.245055  0.445520  1
  H  H47  1  0.157921  0.352794  0.315533  1
  H  H48  1  0.251823  0.448681  0.409195  1
  H  H49  1  0.047859  0.137531  0.622452  1
  H  H50  1  0.197850  0.870545  0.623927  1
  H  H51  1  0.840685  0.980480  0.013158  1
  H  H52  1  0.933594  0.315553  0.724381  1
  H  H53  1  0.217751  0.556356  0.920446  1
  H  H54  1  0.993454  0.712702  0.015366  1
  H  H55  1  0.618802  0.541572  0.878790  1
  H  H56  1  0.354008  0.338693  0.879006  1
  H  H57  1  0.535195  0.326981  0.652607  1
  H  H58  1  0.318555  0.273755  0.639620  1
  H  H59  1  0.333708  0.041525  0.824394  1
  H  H60  1  0.548166  0.090987  0.845141  1
  H  H61  1  0.678938  0.066360  0.625691  1
  H  H62  1  0.464486  0.008092  0.611840  1
  H  H63  1  0.492885  0.776577  0.796415  1
  H  H64  1  0.713018  0.829196  0.804570  1
  H  H65  1  0.800904  0.801831  0.575269  1
  H  H66  1  0.591197  0.710284  0.599137  1
  H  H67  1  0.931433  0.602565  0.729091  1
  H  H68  1  0.837508  0.506668  0.635450  1
  N  N69  1  0.215735  0.709781  0.239099  1
  N  N70  1  0.891809  0.342321  0.213428  1
  N  N71  1  0.391822  0.474022  0.225673  1
  N  N72  1  0.772144  0.584941  0.253563  1
  N  N73  1  0.873588  0.245557  0.805564  1
  N  N74  1  0.197529  0.613023  0.831236  1
  N  N75  1  0.697543  0.481336  0.818984  1
  N  N76  1  0.317162  0.370395  0.791097  1
  S  S77  1  0.472768  0.717649  0.031811  1
  S  S78  1  0.831316  0.356243  0.457653  1
  S  S79  1  0.616539  0.237714  0.012840  1
  S  S80  1  0.258055  0.599113  0.587009  1
 
# Source:                            Ma_etal:JMatterChemA.3.14845(2015)                                              
# Class:                             organic_polymer_crystal                                                         
# Label:                             NH-CS-NH-C6H4-NH-CS-NH-CH2-CH2-CH2-CH2-CH2-CH2-CH2                              
# Structure prediction method used:  USPEX                                                                           
# Number of atoms:                    80
# Number of atom types:                4
# Atom types:                         C  H  N  S
# Dielectric constant, electronic:   3.48770E+00
# Dielectric constant, ionic:        8.62308E-01
# Dielectric constant, total:        4.35001E+00
# Band gap at the GGA level (eV):    2.69630E+00
# Band gap at the HSE06 level (eV):  3.83110E+00
# Atomization energy (eV/atom):     -5.59769E+00
# Volume of the unit cell (A^3):     6.79946E+02
