# generated using pymatgen
data_H10C7SN2
_symmetry_space_group_name_H-M   'P 1'
_cell_length_a   8.32325189
_cell_length_b   9.70618636
_cell_length_c   10.10453560
_cell_angle_alpha   102.69162699
_cell_angle_beta   109.84006353
_cell_angle_gamma   109.49072112
_symmetry_Int_Tables_number   1
_chemical_formula_structural   H10C7SN2
_chemical_formula_sum   'H40 C28 S4 N8'
_cell_volume   670.898525239
_cell_formula_units_Z   4
loop_
 _symmetry_equiv_pos_site_id
 _symmetry_equiv_pos_as_xyz
  1  'x, y, z'
loop_
 _atom_site_type_symbol
 _atom_site_label
 _atom_site_symmetry_multiplicity
 _atom_site_fract_x
 _atom_site_fract_y
 _atom_site_fract_z
 _atom_site_occupancy
  C  C1  1  0.979509  0.693509  0.511597  1
  C  C2  1  0.927449  0.763854  0.615100  1
  C  C3  1  0.163578  0.703478  0.556940  1
  C  C4  1  0.061369  0.846503  0.768043  1
  C  C5  1  0.297479  0.786120  0.709870  1
  C  C6  1  0.245420  0.856462  0.813376  1
  C  C7  1  0.323377  0.568756  0.437822  1
  C  C8  1  0.901640  0.981273  0.887209  1
  C  C9  1  0.799771  0.107552  0.073095  1
  C  C10  1  0.918864  0.195029  0.246278  1
  C  C11  1  0.812949  0.253538  0.325812  1
  C  C12  1  0.911869  0.296559  0.498958  1
  C  C13  1  0.805970  0.355103  0.578474  1
  C  C14  1  0.924972  0.442407  0.751681  1
  C  C15  1  0.479367  0.693344  0.011627  1
  C  C16  1  0.427433  0.763832  0.115150  1
  C  C17  1  0.663459  0.703349  0.056923  1
  C  C18  1  0.561517  0.846653  0.268043  1
  C  C19  1  0.797545  0.786163  0.209829  1
  C  C20  1  0.745605  0.856663  0.313340  1
  C  C21  1  0.823180  0.568604  0.937701  1
  C  C22  1  0.401756  0.981373  0.387242  1
  C  C23  1  0.300052  0.107632  0.573316  1
  C  C24  1  0.419068  0.194834  0.746534  1
  C  C25  1  0.313191  0.253407  0.826071  1
  C  C26  1  0.412084  0.296480  0.999237  1
  C  C27  1  0.306139  0.354959  0.078763  1
  C  C28  1  0.425291  0.442497  0.251952  1
  H  H29  1  0.875837  0.628012  0.393529  1
  H  H30  1  0.782892  0.749863  0.578637  1
  H  H31  1  0.442049  0.800130  0.746312  1
  H  H32  1  0.121300  0.635491  0.336686  1
  H  H33  1  0.103734  0.914530  0.988299  1
  H  H34  1  0.349127  0.921991  0.931444  1
  H  H35  1  0.260762  0.567600  0.225399  1
  H  H36  1  0.964178  0.982326  0.099596  1
  H  H37  1  0.792510  0.188564  0.013964  1
  H  H38  1  0.653784  0.027621  0.045958  1
  H  H39  1  0.960739  0.114732  0.294493  1
  H  H40  1  0.051644  0.292443  0.270161  1
  H  H41  1  0.801969  0.356365  0.302555  1
  H  H42  1  0.665944  0.162335  0.277965  1
  H  H43  1  0.922829  0.193715  0.522197  1
  H  H44  1  0.058874  0.387757  0.546812  1
  H  H45  1  0.764245  0.435497  0.530324  1
  H  H46  1  0.673109  0.257714  0.554461  1
  H  H47  1  0.070950  0.522434  0.778885  1
  H  H48  1  0.932241  0.361293  0.810686  1
  H  H49  1  0.375573  0.627755  0.893580  1
  H  H50  1  0.282817  0.749717  0.078752  1
  H  H51  1  0.942145  0.800249  0.246244  1
  H  H52  1  0.620796  0.635084  0.836594  1
  H  H53  1  0.604124  0.914889  0.488366  1
  H  H54  1  0.849380  0.922281  0.431395  1
  H  H55  1  0.760270  0.567375  0.725241  1
  H  H56  1  0.464722  0.982638  0.599708  1
  H  H57  1  0.292808  0.188797  0.514351  1
  H  H58  1  0.154066  0.027683  0.546125  1
  H  H59  1  0.460709  0.114362  0.794604  1
  H  H60  1  0.551944  0.292193  0.770518  1
  H  H61  1  0.302255  0.356257  0.802828  1
  H  H62  1  0.166169  0.162231  0.778177  1
  H  H63  1  0.423076  0.193672  0.022494  1
  H  H64  1  0.559101  0.387735  0.047149  1
  H  H65  1  0.264151  0.435183  0.030467  1
  H  H66  1  0.173458  0.257515  0.054972  1
  H  H67  1  0.571235  0.522445  0.279034  1
  H  H68  1  0.432712  0.361555  0.311148  1
  N  N69  1  0.206130  0.640348  0.440145  1
  N  N70  1  0.018825  0.909629  0.884841  1
  N  N71  1  0.336002  0.535824  0.305683  1
  N  N72  1  0.889054  0.014228  0.019356  1
  N  N73  1  0.705893  0.640152  0.940074  1
  N  N74  1  0.519079  0.909855  0.384889  1
  N  N75  1  0.835555  0.535564  0.805467  1
  N  N76  1  0.389351  0.014381  0.519461  1
  S  S77  1  0.430099  0.514428  0.578840  1
  S  S78  1  0.794937  0.035601  0.746167  1
  S  S79  1  0.930287  0.514514  0.078790  1
  S  S80  1  0.294648  0.035512  0.246205  1
 
# Source:                            Ma_etal:JMatterChemA.3.14845(2015)                                              
# Class:                             organic_polymer_crystal                                                         
# Label:                             NH-CS-NH-C6H4-NH-CS-NH-CH2-CH2-CH2-CH2-CH2-CH2-CH2                              
# Structure prediction method used:  USPEX                                                                           
# Number of atoms:                    80
# Number of atom types:                4
# Atom types:                         C  H  N  S
# Dielectric constant, electronic:   3.54271E+00
# Dielectric constant, ionic:        6.28089E-01
# Dielectric constant, total:        4.17080E+00
# Band gap at the GGA level (eV):    2.54180E+00
# Band gap at the HSE06 level (eV):  3.55380E+00
# Atomization energy (eV/atom):     -5.60555E+00
# Volume of the unit cell (A^3):     6.70899E+02
