# generated using pymatgen
data_H10C7SN2
_symmetry_space_group_name_H-M   'P 1'
_cell_length_a   8.98371120
_cell_length_b   9.40911760
_cell_length_c   8.74621847
_cell_angle_alpha   75.92402131
_cell_angle_beta   80.14708832
_cell_angle_gamma   77.72214815
_symmetry_Int_Tables_number   1
_chemical_formula_structural   H10C7SN2
_chemical_formula_sum   'H40 C28 S4 N8'
_cell_volume   695.124585698
_cell_formula_units_Z   4
loop_
 _symmetry_equiv_pos_site_id
 _symmetry_equiv_pos_as_xyz
  1  'x, y, z'
loop_
 _atom_site_type_symbol
 _atom_site_label
 _atom_site_symmetry_multiplicity
 _atom_site_fract_x
 _atom_site_fract_y
 _atom_site_fract_z
 _atom_site_occupancy
  C  C1  1  0.631936  0.054048  0.587879  1
  C  C2  1  0.648861  0.194679  0.494515  1
  C  C3  1  0.740849  0.926418  0.566727  1
  C  C4  1  0.773971  0.207569  0.374267  1
  C  C5  1  0.863638  0.940599  0.444372  1
  C  C6  1  0.877877  0.079478  0.348721  1
  C  C7  1  0.782961  0.648132  0.640222  1
  C  C8  1  0.708847  0.464366  0.208588  1
  C  C9  1  0.683640  0.737720  0.097478  1
  C  C10  1  0.792687  0.848392  0.031442  1
  C  C11  1  0.717936  0.013457  0.018384  1
  C  C12  1  0.818974  0.114010  0.898465  1
  C  C13  1  0.792007  0.275760  0.918706  1
  C  C14  1  0.833232  0.376942  0.758341  1
  C  C15  1  0.368064  0.945952  0.412121  1
  C  C16  1  0.351139  0.805321  0.505485  1
  C  C17  1  0.259151  0.073582  0.433273  1
  C  C18  1  0.226029  0.792431  0.625733  1
  C  C19  1  0.136362  0.059401  0.555628  1
  C  C20  1  0.122123  0.920522  0.651279  1
  C  C21  1  0.217039  0.351868  0.359778  1
  C  C22  1  0.291153  0.535634  0.791412  1
  C  C23  1  0.316360  0.262280  0.902522  1
  C  C24  1  0.207313  0.151608  0.968558  1
  C  C25  1  0.282064  0.986543  0.981616  1
  C  C26  1  0.181026  0.885990  0.101535  1
  C  C27  1  0.207993  0.724240  0.081294  1
  C  C28  1  0.166768  0.623058  0.241659  1
  H  H29  1  0.534537  0.043935  0.680235  1
  H  H30  1  0.566180  0.292017  0.515965  1
  H  H31  1  0.950658  0.845103  0.427544  1
  H  H32  1  0.652984  0.792644  0.773333  1
  H  H33  1  0.919670  0.359811  0.274005  1
  H  H34  1  0.974540  0.090173  0.256579  1
  H  H35  1  0.798375  0.558126  0.878276  1
  H  H36  1  0.882831  0.583056  0.151208  1
  H  H37  1  0.600427  0.745526  0.016332  1
  H  H38  1  0.617795  0.757219  0.210473  1
  H  H39  1  0.882778  0.823186  0.109019  1
  H  H40  1  0.849159  0.830414  0.914346  1
  H  H41  1  0.604159  0.035125  0.978787  1
  H  H42  1  0.700643  0.040579  0.136162  1
  H  H43  1  0.939936  0.064565  0.906287  1
  H  H44  1  0.798810  0.113033  0.778561  1
  H  H45  1  0.671923  0.312053  0.962842  1
  H  H46  1  0.861554  0.282972  0.007160  1
  H  H47  1  0.757330  0.372848  0.674823  1
  H  H48  1  0.950446  0.338838  0.706417  1
  H  H49  1  0.465463  0.956065  0.319765  1
  H  H50  1  0.433820  0.707983  0.484035  1
  H  H51  1  0.049342  0.154897  0.572456  1
  H  H52  1  0.347016  0.207356  0.226667  1
  H  H53  1  0.080330  0.640189  0.725995  1
  H  H54  1  0.025460  0.909827  0.743421  1
  H  H55  1  0.201625  0.441874  0.121724  1
  H  H56  1  0.117169  0.416944  0.848792  1
  H  H57  1  0.399573  0.254474  0.983668  1
  H  H58  1  0.382205  0.242781  0.789527  1
  H  H59  1  0.117222  0.176814  0.890981  1
  H  H60  1  0.150841  0.169586  0.085654  1
  H  H61  1  0.395841  0.964875  0.021213  1
  H  H62  1  0.299357  0.959421  0.863838  1
  H  H63  1  0.060064  0.935435  0.093713  1
  H  H64  1  0.201190  0.886967  0.221439  1
  H  H65  1  0.328077  0.687947  0.037158  1
  H  H66  1  0.138446  0.717028  0.992840  1
  H  H67  1  0.242670  0.627152  0.325177  1
  H  H68  1  0.049554  0.661162  0.293583  1
  N  N69  1  0.734139  0.789062  0.677024  1
  N  N70  1  0.809010  0.346460  0.280248  1
  N  N71  1  0.818220  0.535077  0.767181  1
  N  N72  1  0.777019  0.584729  0.122255  1
  N  N73  1  0.265861  0.210938  0.322976  1
  N  N74  1  0.190990  0.653540  0.719752  1
  N  N75  1  0.181780  0.464923  0.232819  1
  N  N76  1  0.222981  0.415271  0.877745  1
  S  S77  1  0.792000  0.618537  0.458242  1
  S  S78  1  0.523147  0.465780  0.211880  1
  S  S79  1  0.208000  0.381463  0.541758  1
  S  S80  1  0.476853  0.534220  0.788120  1
 
# Source:                            Ma_etal:JMatterChemA.3.14845(2015)                                              
# Class:                             organic_polymer_crystal                                                         
# Label:                             NH-CS-NH-C6H4-NH-CS-NH-CH2-CH2-CH2-CH2-CH2-CH2-CH2                              
# Structure prediction method used:  USPEX                                                                           
# Number of atoms:                    80
# Number of atom types:                4
# Atom types:                         C  H  N  S
# Dielectric constant, electronic:   3.38128E+00
# Dielectric constant, ionic:        8.39254E-01
# Dielectric constant, total:        4.22054E+00
# Band gap at the GGA level (eV):    2.36000E+00
# Band gap at the HSE06 level (eV):  3.44460E+00
# Atomization energy (eV/atom):     -5.58752E+00
# Volume of the unit cell (A^3):     6.95125E+02
