# generated using pymatgen
data_H10C7SN2
_symmetry_space_group_name_H-M   'P 1'
_cell_length_a   5.35788558
_cell_length_b   17.45293189
_cell_length_c   7.88423860
_cell_angle_alpha   90.00000000
_cell_angle_beta   107.43303705
_cell_angle_gamma   90.00000000
_symmetry_Int_Tables_number   1
_chemical_formula_structural   H10C7SN2
_chemical_formula_sum   'H40 C28 S4 N8'
_cell_volume   703.397465516
_cell_formula_units_Z   4
loop_
 _symmetry_equiv_pos_site_id
 _symmetry_equiv_pos_as_xyz
  1  'x, y, z'
loop_
 _atom_site_type_symbol
 _atom_site_label
 _atom_site_symmetry_multiplicity
 _atom_site_fract_x
 _atom_site_fract_y
 _atom_site_fract_z
 _atom_site_occupancy
  C  C1  1  0.194188  0.637309  0.386882  1
  C  C2  1  0.165032  0.716113  0.361512  1
  C  C3  1  0.365870  0.594115  0.320380  1
  C  C4  1  0.308787  0.754788  0.265673  1
  C  C5  1  0.515201  0.633355  0.228899  1
  C  C6  1  0.485993  0.712077  0.202897  1
  C  C7  1  0.506400  0.451850  0.312140  1
  C  C8  1  0.143378  0.893156  0.255268  1
  C  C9  1  0.098287  0.034688  0.254284  1
  C  C10  1  0.191347  0.107762  0.183530  1
  C  C11  1  0.042385  0.174312  0.237050  1
  C  C12  1  0.072571  0.254651  0.166862  1
  C  C13  1  0.848369  0.305670  0.190632  1
  C  C14  1  0.911697  0.391261  0.193087  1
  C  C15  1  0.805812  0.137309  0.613118  1
  C  C16  1  0.834968  0.216113  0.638488  1
  C  C17  1  0.634130  0.094115  0.679620  1
  C  C18  1  0.691213  0.254788  0.734327  1
  C  C19  1  0.484799  0.133355  0.771101  1
  C  C20  1  0.514007  0.212077  0.797103  1
  C  C21  1  0.493600  0.951850  0.687860  1
  C  C22  1  0.856622  0.393156  0.744732  1
  C  C23  1  0.901713  0.534688  0.745716  1
  C  C24  1  0.808653  0.607762  0.816470  1
  C  C25  1  0.957615  0.674312  0.762950  1
  C  C26  1  0.927429  0.754651  0.833138  1
  C  C27  1  0.151631  0.805670  0.809368  1
  C  C28  1  0.088303  0.891261  0.806913  1
  H  H29  1  0.079213  0.608160  0.459349  1
  H  H30  1  0.029315  0.746902  0.413205  1
  H  H31  1  0.656622  0.603868  0.180107  1
  H  H32  1  0.270638  0.499330  0.439946  1
  H  H33  1  0.439055  0.851051  0.174469  1
  H  H34  1  0.607191  0.740824  0.134473  1
  H  H35  1  0.425727  0.384598  0.481506  1
  H  H36  1  0.415938  0.969063  0.218836  1
  H  H37  1  0.888623  0.027437  0.188521  1
  H  H38  1  0.123743  0.041146  0.397242  1
  H  H39  1  0.404143  0.115578  0.239971  1
  H  H40  1  0.145926  0.104553  0.038353  1
  H  H41  1  0.832873  0.159311  0.194407  1
  H  H42  1  0.102238  0.177403  0.382697  1
  H  H43  1  0.263353  0.278779  0.239975  1
  H  H44  1  0.065490  0.252391  0.026427  1
  H  H45  1  0.665610  0.291990  0.088312  1
  H  H46  1  0.812902  0.291835  0.316216  1
  H  H47  1  0.021628  0.405465  0.100744  1
  H  H48  1  0.028381  0.406999  0.326169  1
  H  H49  1  0.920787  0.108160  0.540651  1
  H  H50  1  0.970685  0.246902  0.586795  1
  H  H51  1  0.343378  0.103868  0.819893  1
  H  H52  1  0.729362  0.999330  0.560054  1
  H  H53  1  0.560945  0.351051  0.825531  1
  H  H54  1  0.392809  0.240824  0.865527  1
  H  H55  1  0.574273  0.884598  0.518494  1
  H  H56  1  0.584062  0.469063  0.781164  1
  H  H57  1  0.111377  0.527437  0.811479  1
  H  H58  1  0.876257  0.541146  0.602758  1
  H  H59  1  0.595857  0.615578  0.760029  1
  H  H60  1  0.854074  0.604553  0.961647  1
  H  H61  1  0.167127  0.659311  0.805593  1
  H  H62  1  0.897762  0.677403  0.617303  1
  H  H63  1  0.736647  0.778779  0.760025  1
  H  H64  1  0.934510  0.752391  0.973573  1
  H  H65  1  0.334390  0.791990  0.911688  1
  H  H66  1  0.187098  0.791835  0.683784  1
  H  H67  1  0.978372  0.905465  0.899256  1
  H  H68  1  0.971619  0.906999  0.673831  1
  N  N69  1  0.376615  0.514528  0.357385  1
  N  N70  1  0.293598  0.834298  0.225463  1
  N  N71  1  0.515178  0.385243  0.383705  1
  N  N72  1  0.230072  0.964227  0.226597  1
  N  N73  1  0.623385  0.014528  0.642615  1
  N  N74  1  0.706402  0.334298  0.774537  1
  N  N75  1  0.484822  0.885243  0.616295  1
  N  N76  1  0.769928  0.464227  0.773403  1
  S  S77  1  0.645274  0.463300  0.134018  1
  S  S78  1  0.867640  0.882531  0.316118  1
  S  S79  1  0.354726  0.963300  0.865982  1
  S  S80  1  0.132360  0.382531  0.683882  1
 
# Source:                            Ma_etal:JMatterChemA.3.14845(2015)                                              
# Class:                             organic_polymer_crystal                                                         
# Label:                             NH-CS-NH-C6H4-NH-CS-NH-CH2-CH2-CH2-CH2-CH2-CH2-CH2                              
# Structure prediction method used:  USPEX                                                                           
# Number of atoms:                    80
# Number of atom types:                4
# Atom types:                         C  H  N  S
# Dielectric constant, electronic:   3.42538E+00
# Dielectric constant, ionic:        9.31189E-01
# Dielectric constant, total:        4.35657E+00
# Band gap at the GGA level (eV):    2.61070E+00
# Band gap at the HSE06 level (eV):  3.67510E+00
# Atomization energy (eV/atom):     -5.57732E+00
# Volume of the unit cell (A^3):     7.03397E+02
