# generated using pymatgen
data_H12C14SN2
_symmetry_space_group_name_H-M   'P 1'
_cell_length_a   3.85424895
_cell_length_b   10.23825179
_cell_length_c   12.88912381
_cell_angle_alpha   90.01445974
_cell_angle_beta   90.00263377
_cell_angle_gamma   90.18999988
_symmetry_Int_Tables_number   1
_chemical_formula_structural   H12C14SN2
_chemical_formula_sum   'H24 C28 S2 N4'
_cell_volume   508.611952144
_cell_formula_units_Z   2
loop_
 _symmetry_equiv_pos_site_id
 _symmetry_equiv_pos_as_xyz
  1  'x, y, z'
loop_
 _atom_site_type_symbol
 _atom_site_label
 _atom_site_symmetry_multiplicity
 _atom_site_fract_x
 _atom_site_fract_y
 _atom_site_fract_z
 _atom_site_occupancy
  C  C1  1  0.890523  0.058254  0.238719  1
  C  C2  1  0.696604  0.135098  0.307002  1
  C  C3  1  0.639753  0.092888  0.408812  1
  C  C4  1  0.768876  0.972782  0.443271  1
  C  C5  1  0.969068  0.898867  0.373955  1
  C  C6  1  0.033772  0.940825  0.273196  1
  C  C7  1  0.665884  0.911355  0.546224  1
  C  C8  1  0.768851  0.972789  0.649202  1
  C  C9  1  0.969038  0.898872  0.718501  1
  C  C10  1  0.033726  0.940832  0.819281  1
  C  C11  1  0.890482  0.058268  0.853800  1
  C  C12  1  0.696580  0.135115  0.785536  1
  C  C13  1  0.639721  0.092900  0.683710  1
  C  C14  1  0.877576  0.032704  0.046255  1
  C  C15  1  0.240059  0.557125  0.238709  1
  C  C16  1  0.102985  0.439252  0.275262  1
  C  C17  1  0.177031  0.398861  0.375909  1
  C  C18  1  0.379906  0.475232  0.443193  1
  C  C19  1  0.502404  0.595681  0.406731  1
  C  C20  1  0.437282  0.636063  0.304952  1
  C  C21  1  0.496568  0.417414  0.546196  1
  C  C22  1  0.379905  0.475239  0.649218  1
  C  C23  1  0.502414  0.595687  0.685743  1
  C  C24  1  0.437253  0.636065  0.787534  1
  C  C25  1  0.240010  0.557125  0.853736  1
  C  C26  1  0.102961  0.439248  0.817127  1
  C  C27  1  0.177022  0.398862  0.716465  1
  C  C28  1  0.245555  0.530790  0.046220  1
  H  H29  1  0.580233  0.224974  0.279577  1
  H  H30  1  0.473227  0.150084  0.458825  1
  H  H31  1  0.076730  0.806676  0.399420  1
  H  H32  1  0.200100  0.885982  0.221657  1
  H  H33  1  0.768423  0.812032  0.546210  1
  H  H34  1  0.382541  0.900987  0.546210  1
  H  H35  1  0.473213  0.150103  0.633722  1
  H  H36  1  0.580203  0.224992  0.812983  1
  H  H37  1  0.076731  0.806689  0.693006  1
  H  H38  1  0.200022  0.885992  0.870808  1
  H  H39  1  0.019870  0.197553  0.966674  1
  H  H40  1  0.019932  0.197544  0.125900  1
  H  H41  1  0.934421  0.382621  0.225349  1
  H  H42  1  0.074646  0.306102  0.402772  1
  H  H43  1  0.670437  0.654628  0.455289  1
  H  H44  1  0.549143  0.726280  0.275948  1
  H  H45  1  0.780605  0.418341  0.546198  1
  H  H46  1  0.419956  0.314642  0.546176  1
  H  H47  1  0.074615  0.306110  0.689557  1
  H  H48  1  0.934410  0.382611  0.867008  1
  H  H49  1  0.670493  0.654634  0.637233  1
  H  H50  1  0.549103  0.726284  0.816579  1
  H  H51  1  0.101414  0.694908  0.966462  1
  H  H52  1  0.101451  0.694914  0.126039  1
  N  N53  1  0.945743  0.102121  0.957732  1
  N  N54  1  0.945823  0.102110  0.134806  1
  N  N55  1  0.175486  0.599640  0.957597  1
  N  N56  1  0.175534  0.599648  0.134864  1
  S  S57  1  0.706578  0.878583  0.046225  1
  S  S58  1  0.419072  0.377651  0.046190  1
 
# Source:                            VSharma_etal:unpublished                                                        
# Class:                             organic_polymer_crystal                                                         
# Label:                             polythiourea                                                                    
# Structure prediction method used:  USPEX                                                                           
# Number of atoms:                    58
# Number of atom types:                4
# Atom types:                         C  H  N  S
# Dielectric constant, electronic:   3.67491E+00
# Dielectric constant, ionic:        7.83680E-01
# Dielectric constant, total:        4.45859E+00
# Band gap at the GGA level (eV):    2.79580E+00
# Band gap at the HSE06 level (eV):  3.90190E+00
# Atomization energy (eV/atom):     -6.09074E+00
# Volume of the unit cell (A^3):     5.08612E+02
