# generated using pymatgen
data_H12C14SN2
_symmetry_space_group_name_H-M   'P 1'
_cell_length_a   5.81283670
_cell_length_b   6.99691287
_cell_length_c   12.75851473
_cell_angle_alpha   89.99885392
_cell_angle_beta   90.00268838
_cell_angle_gamma   89.99793051
_symmetry_Int_Tables_number   1
_chemical_formula_structural   H12C14SN2
_chemical_formula_sum   'H24 C28 S2 N4'
_cell_volume   518.913186558
_cell_formula_units_Z   2
loop_
 _symmetry_equiv_pos_site_id
 _symmetry_equiv_pos_as_xyz
  1  'x, y, z'
loop_
 _atom_site_type_symbol
 _atom_site_label
 _atom_site_symmetry_multiplicity
 _atom_site_fract_x
 _atom_site_fract_y
 _atom_site_fract_z
 _atom_site_occupancy
  C  C1  1  0.205162  0.649493  0.351136  1
  C  C2  1  0.033889  0.570448  0.414295  1
  C  C3  1  0.086034  0.507963  0.515531  1
  C  C4  1  0.309912  0.524466  0.554989  1
  C  C5  1  0.476310  0.614955  0.492536  1
  C  C6  1  0.426597  0.677447  0.391293  1
  C  C7  1  0.379601  0.429524  0.657408  1
  C  C8  1  0.309898  0.524472  0.759819  1
  C  C9  1  0.476290  0.614950  0.822288  1
  C  C10  1  0.426566  0.677415  0.923530  1
  C  C11  1  0.205130  0.649461  0.963670  1
  C  C12  1  0.033858  0.570433  0.900493  1
  C  C13  1  0.086017  0.507971  0.799259  1
  C  C14  1  0.245320  0.638884  0.157404  1
  C  C15  1  0.936463  0.149479  0.351161  1
  C  C16  1  0.715039  0.177428  0.391316  1
  C  C17  1  0.665349  0.114946  0.492558  1
  C  C18  1  0.831754  0.024457  0.555016  1
  C  C19  1  0.055620  0.007957  0.515559  1
  C  C20  1  0.107754  0.070441  0.414326  1
  C  C21  1  0.762085  0.929511  0.657429  1
  C  C22  1  0.831757  0.024468  0.759840  1
  C  C23  1  0.055633  0.007982  0.799300  1
  C  C24  1  0.107767  0.070464  0.900535  1
  C  C25  1  0.936478  0.149484  0.963694  1
  C  C26  1  0.715043  0.177423  0.923536  1
  C  C27  1  0.665349  0.114942  0.822293  1
  C  C28  1  0.896261  0.138893  0.157426  1
  H  H29  1  0.863628  0.550444  0.381858  1
  H  H30  1  0.954825  0.435230  0.561174  1
  H  H31  1  0.648587  0.632965  0.523026  1
  H  H32  1  0.555873  0.747554  0.343617  1
  H  H33  1  0.566876  0.411708  0.657415  1
  H  H34  1  0.305978  0.284852  0.657411  1
  H  H35  1  0.954813  0.435246  0.753602  1
  H  H36  1  0.863596  0.550425  0.932919  1
  H  H37  1  0.648567  0.632974  0.791806  1
  H  H38  1  0.555846  0.747499  0.971220  1
  H  H39  1  0.991250  0.776597  0.075882  1
  H  H40  1  0.991280  0.776626  0.238913  1
  H  H41  1  0.585754  0.247527  0.343633  1
  H  H42  1  0.493079  0.132969  0.523048  1
  H  H43  1  0.186841  0.935228  0.561206  1
  H  H44  1  0.278011  0.050448  0.381894  1
  H  H45  1  0.835738  0.784846  0.657435  1
  H  H46  1  0.574817  0.911671  0.657428  1
  H  H47  1  0.493075  0.132956  0.791798  1
  H  H48  1  0.585758  0.247509  0.971216  1
  H  H49  1  0.186852  0.935265  0.753656  1
  H  H50  1  0.278031  0.050477  0.932973  1
  H  H51  1  0.150320  0.276614  0.075922  1
  H  H52  1  0.150302  0.276623  0.238943  1
  N  N53  1  0.145867  0.707151  0.067692  1
  N  N54  1  0.145909  0.707196  0.247109  1
  N  N55  1  0.995696  0.207185  0.067722  1
  N  N56  1  0.995684  0.207187  0.247135  1
  S  S57  1  0.462213  0.474353  0.157413  1
  S  S58  1  0.679375  0.974365  0.157420  1
 
# Source:                            VSharma_etal:unpublished                                                        
# Class:                             organic_polymer_crystal                                                         
# Label:                             polythiourea                                                                    
# Structure prediction method used:  USPEX                                                                           
# Number of atoms:                    58
# Number of atom types:                4
# Atom types:                         C  H  N  S
# Dielectric constant, electronic:   3.60677E+00
# Dielectric constant, ionic:        2.49874E+00
# Dielectric constant, total:        6.10550E+00
# Band gap at the GGA level (eV):    2.60780E+00
# Band gap at the HSE06 level (eV):  3.78980E+00
# Atomization energy (eV/atom):     -6.09354E+00
# Volume of the unit cell (A^3):     5.18913E+02
