# generated using pymatgen
data_H16C13N2O5
_symmetry_space_group_name_H-M   'P 1'
_cell_length_a   4.94931106
_cell_length_b   10.13916941
_cell_length_c   12.38928589
_cell_angle_alpha   107.49010496
_cell_angle_beta   102.74651503
_cell_angle_gamma   98.34462025
_symmetry_Int_Tables_number   1
_chemical_formula_structural   H16C13N2O5
_chemical_formula_sum   'H32 C26 N4 O10'
_cell_volume   563.22469867
_cell_formula_units_Z   2
loop_
 _symmetry_equiv_pos_site_id
 _symmetry_equiv_pos_as_xyz
  1  'x, y, z'
loop_
 _atom_site_type_symbol
 _atom_site_label
 _atom_site_symmetry_multiplicity
 _atom_site_fract_x
 _atom_site_fract_y
 _atom_site_fract_z
 _atom_site_occupancy
  O  O1  1  0.762694  0.270835  0.029792  1
  O  O2  1  0.677919  0.478290  0.003338  1
  O  O3  1  0.302432  0.582392  0.665831  1
  O  O4  1  0.968510  0.641626  0.540678  1
  O  O5  1  0.966757  0.351505  0.796829  1
  O  O6  1  0.777308  0.772615  0.030637  1
  O  O7  1  0.677817  0.975961  0.000391  1
  O  O8  1  0.292096  0.087302  0.664018  1
  O  O9  1  0.959597  0.144067  0.536366  1
  O  O10  1  0.958674  0.854271  0.794726  1
  C  C11  1  0.692744  0.400878  0.062865  1
  C  C12  1  0.506570  0.530995  0.225618  1
  C  C13  1  0.364076  0.612760  0.169524  1
  C  C14  1  0.508293  0.546884  0.341594  1
  C  C15  1  0.218109  0.702909  0.230146  1
  C  C16  1  0.379436  0.646143  0.404336  1
  C  C17  1  0.222220  0.723078  0.347579  1
  C  C18  1  0.075621  0.829200  0.409432  1
  C  C19  1  0.215634  0.633176  0.575436  1
  C  C20  1  0.061898  0.503732  0.691637  1
  C  C21  1  0.196415  0.447626  0.785764  1
  C  C22  1  0.056358  0.310087  0.899038  1
  C  C23  1  0.797201  0.220032  0.910305  1
  C  C24  1  0.696815  0.900103  0.061193  1
  C  C25  1  0.503116  0.029276  0.222143  1
  C  C26  1  0.362667  0.111159  0.165525  1
  C  C27  1  0.501241  0.045236  0.337836  1
  C  C28  1  0.215782  0.201596  0.225280  1
  C  C29  1  0.371638  0.144851  0.399855  1
  C  C30  1  0.216697  0.222017  0.342449  1
  C  C31  1  0.069598  0.328728  0.403338  1
  C  C32  1  0.206278  0.135395  0.571847  1
  C  C33  1  0.050971  0.009107  0.690101  1
  C  C34  1  0.186540  0.949743  0.781853  1
  C  C35  1  0.058856  0.810420  0.894882  1
  C  C36  1  0.808028  0.719250  0.910501  1
  N  N37  1  0.640753  0.426274  0.170404  1
  N  N38  1  0.429072  0.666023  0.528234  1
  N  N39  1  0.639787  0.925062  0.167913  1
  N  N40  1  0.419851  0.165482  0.523875  1
  H  H41  1  0.659101  0.348015  0.205033  1
  H  H42  1  0.367055  0.606333  0.081275  1
  H  H43  1  0.617561  0.483882  0.384783  1
  H  H44  1  0.101087  0.761909  0.184654  1
  H  H45  1  0.620687  0.648629  0.564724  1
  H  H46  1  0.869021  0.778882  0.412689  1
  H  H47  1  0.046154  0.906402  0.365341  1
  H  H48  1  0.205814  0.883860  0.500019  1
  H  H49  1  0.925221  0.574182  0.719689  1
  H  H50  1  0.937803  0.416232  0.611715  1
  H  H51  1  0.361539  0.392944  0.760898  1
  H  H52  1  0.296986  0.533335  0.870408  1
  H  H53  1  0.223729  0.251730  0.888243  1
  H  H54  1  0.142608  0.404498  0.977544  1
  H  H55  1  0.811180  0.110714  0.897968  1
  H  H56  1  0.608507  0.222913  0.847176  1
  H  H57  1  0.661835  0.848062  0.203762  1
  H  H58  1  0.368797  0.105013  0.077670  1
  H  H59  1  0.609412  0.982367  0.381543  1
  H  H60  1  0.100467  0.260722  0.179325  1
  H  H61  1  0.610937  0.147929  0.560742  1
  H  H62  1  0.860623  0.279054  0.404965  1
  H  H63  1  0.045421  0.406780  0.359833  1
  H  H64  1  0.196863  0.382496  0.494435  1
  H  H65  1  0.918548  0.080911  0.720302  1
  H  H66  1  0.922789  0.923373  0.609749  1
  H  H67  1  0.347634  0.893848  0.754004  1
  H  H68  1  0.292997  0.034096  0.866705  1
  H  H69  1  0.224941  0.752559  0.879436  1
  H  H70  1  0.151294  0.903831  0.973755  1
  H  H71  1  0.830496  0.611567  0.901086  1
  H  H72  1  0.614112  0.716844  0.847420  1
 
# Source:                            Lorenzini_etal:Polymer.54.3529(2013)                                            
# Class:                             organic_polymer_crystal                                                         
# Label:                             polyurethane                                                                    
# Structure prediction method used:  USPEX                                                                           
# Number of atoms:                    72
# Number of atom types:                4
# Atom types:                         O  C  N  H
# Dielectric constant, electronic:   2.99801E+00
# Dielectric constant, ionic:        7.30721E-01
# Dielectric constant, total:        3.72873E+00
# Band gap at the GGA level (eV):    3.36790E+00
# Band gap at the HSE06 level (eV):  4.45380E+00
# Atomization energy (eV/atom):     -5.83406E+00
# Volume of the unit cell (A^3):     5.63225E+02
