# generated using pymatgen
data_H16C13N2O5
_symmetry_space_group_name_H-M   'P 1'
_cell_length_a   5.94730467
_cell_length_b   6.65606725
_cell_length_c   14.28427427
_cell_angle_alpha   79.64045185
_cell_angle_beta   88.10969447
_cell_angle_gamma   90.39921861
_symmetry_Int_Tables_number   1
_chemical_formula_structural   H16C13N2O5
_chemical_formula_sum   'H32 C26 N4 O10'
_cell_volume   555.884251499
_cell_formula_units_Z   2
loop_
 _symmetry_equiv_pos_site_id
 _symmetry_equiv_pos_as_xyz
  1  'x, y, z'
loop_
 _atom_site_type_symbol
 _atom_site_label
 _atom_site_symmetry_multiplicity
 _atom_site_fract_x
 _atom_site_fract_y
 _atom_site_fract_z
 _atom_site_occupancy
  O  O1  1  0.475937  0.840855  0.342804  1
  O  O2  1  0.818595  0.701634  0.304292  1
  O  O3  1  0.820264  0.584874  0.921094  1
  O  O4  1  0.194710  0.637313  0.880688  1
  O  O5  1  0.589915  0.769804  0.120551  1
  O  O6  1  0.121683  0.182406  0.389534  1
  O  O7  1  0.474256  0.326811  0.392089  1
  O  O8  1  0.272598  0.035506  0.985495  1
  O  O9  1  0.547210  0.265099  0.918241  1
  O  O10  1  0.900922  0.270724  0.148055  1
  C  C11  1  0.689853  0.768375  0.359992  1
  C  C12  1  0.902194  0.711329  0.511139  1
  C  C13  1  0.108454  0.639571  0.481962  1
  C  C14  1  0.857324  0.709549  0.607687  1
  C  C15  1  0.266029  0.576604  0.551374  1
  C  C16  1  0.010401  0.634175  0.676619  1
  C  C17  1  0.224438  0.572335  0.648979  1
  C  C18  1  0.398513  0.497653  0.719904  1
  C  C19  1  0.998632  0.613170  0.858522  1
  C  C20  1  0.838092  0.662368  0.009906  1
  C  C21  1  0.608217  0.621613  0.058786  1
  C  C22  1  0.407120  0.720454  0.188672  1
  C  C23  1  0.394563  0.890646  0.246318  1
  C  C24  1  0.322416  0.210853  0.430476  1
  C  C25  1  0.484615  0.102199  0.590848  1
  C  C26  1  0.702082  0.184684  0.569941  1
  C  C27  1  0.418439  0.025347  0.685874  1
  C  C28  1  0.846027  0.186232  0.644963  1
  C  C29  1  0.562562  0.036964  0.760613  1
  C  C30  1  0.782638  0.115197  0.740719  1
  C  C31  1  0.944968  0.121290  0.818603  1
  C  C32  1  0.444308  0.104111  0.919474  1
  C  C33  1  0.209349  0.185960  0.046110  1
  C  C34  1  0.976421  0.122481  0.090473  1
  C  C35  1  0.898099  0.207799  0.250647  1
  C  C36  1  0.100933  0.298486  0.291428  1
  N  N37  1  0.729630  0.790830  0.451307  1
  N  N38  1  0.917335  0.608714  0.770649  1
  N  N39  1  0.325682  0.090246  0.519669  1
  N  N40  1  0.475872  0.971428  0.856340  1
  H  H41  1  0.597900  0.850260  0.483494  1
  H  H42  1  0.147785  0.638233  0.407997  1
  H  H43  1  0.696435  0.762087  0.629847  1
  H  H44  1  0.427085  0.523530  0.528941  1
  H  H45  1  0.747194  0.596608  0.774133  1
  H  H46  1  0.455035  0.621261  0.754653  1
  H  H47  1  0.540268  0.435500  0.685378  1
  H  H48  1  0.331667  0.382520  0.777762  1
  H  H49  1  0.972028  0.586302  0.052291  1
  H  H50  1  0.872434  0.825965  0.992639  1
  H  H51  1  0.474694  0.642475  0.006980  1
  H  H52  1  0.596950  0.466348  0.100086  1
  H  H53  1  0.248766  0.710964  0.151474  1
  H  H54  1  0.435317  0.573743  0.235067  1
  H  H55  1  0.220790  0.929553  0.259363  1
  H  H56  1  0.488882  0.024194  0.208686  1
  H  H57  1  0.181496  0.009807  0.540891  1
  H  H58  1  0.758941  0.242688  0.497410  1
  H  H59  1  0.250184  0.963185  0.701809  1
  H  H60  1  0.014149  0.248085  0.628258  1
  H  H61  1  0.362480  0.852623  0.865189  1
  H  H62  1  0.888302  0.223377  0.865890  1
  H  H63  1  0.110145  0.170776  0.788441  1
  H  H64  1  0.961049  0.971475  0.862973  1
  H  H65  1  0.337478  0.186940  0.098987  1
  H  H66  1  0.206505  0.337299  0.001772  1
  H  H67  1  0.854453  0.127932  0.034527  1
  H  H68  1  0.972963  0.968399  0.132946  1
  H  H69  1  0.742420  0.263868  0.278974  1
  H  H70  1  0.900789  0.041975  0.268853  1
  H  H71  1  0.076392  0.458741  0.294983  1
  H  H72  1  0.255006  0.280473  0.250511  1
 
# Source:                            Lorenzini_etal:Polymer.54.3529(2013)                                            
# Class:                             organic_polymer_crystal                                                         
# Label:                             polyurethane                                                                    
# Structure prediction method used:  USPEX                                                                           
# Number of atoms:                    72
# Number of atom types:                4
# Atom types:                         O  C  N  H
# Dielectric constant, electronic:   3.01878E+00
# Dielectric constant, ionic:        9.21529E-01
# Dielectric constant, total:        3.94030E+00
# Band gap at the GGA level (eV):    3.41160E+00
# Band gap at the HSE06 level (eV):  4.53150E+00
# Atomization energy (eV/atom):     -5.83371E+00
# Volume of the unit cell (A^3):     5.55884E+02
