# generated using pymatgen
data_H16C13N2O5
_symmetry_space_group_name_H-M   'P 1'
_cell_length_a   5.34027628
_cell_length_b   6.86184630
_cell_length_c   16.13299636
_cell_angle_alpha   84.02930400
_cell_angle_beta   80.60831713
_cell_angle_gamma   76.47979585
_symmetry_Int_Tables_number   1
_chemical_formula_structural   H16C13N2O5
_chemical_formula_sum   'H32 C26 N4 O10'
_cell_volume   565.753745682
_cell_formula_units_Z   2
loop_
 _symmetry_equiv_pos_site_id
 _symmetry_equiv_pos_as_xyz
  1  'x, y, z'
loop_
 _atom_site_type_symbol
 _atom_site_label
 _atom_site_symmetry_multiplicity
 _atom_site_fract_x
 _atom_site_fract_y
 _atom_site_fract_z
 _atom_site_occupancy
  O  O1  1  0.477911  0.718759  0.299735  1
  O  O2  1  0.899704  0.542256  0.310652  1
  O  O3  1  0.228458  0.763166  0.752475  1
  O  O4  1  0.260533  0.449858  0.824020  1
  O  O5  1  0.420167  0.641755  0.532294  1
  O  O6  1  0.324600  0.066901  0.954889  1
  O  O7  1  0.754985  0.087130  0.930709  1
  O  O8  1  0.687217  0.142275  0.382502  1
  O  O9  1  0.931900  0.935067  0.474736  1
  O  O10  1  0.069099  0.083251  0.175772  1
  C  C11  1  0.735476  0.645266  0.269223  1
  C  C12  1  0.000153  0.646847  0.126246  1
  C  C13  1  0.240679  0.534623  0.146206  1
  C  C14  1  0.972076  0.704450  0.041914  1
  C  C15  1  0.445702  0.487794  0.080415  1
  C  C16  1  0.179525  0.657434  0.977536  1
  C  C17  1  0.425339  0.549321  0.995621  1
  C  C18  1  0.658585  0.521898  0.927835  1
  C  C19  1  0.213501  0.633873  0.824548  1
  C  C20  1  0.393325  0.670653  0.677777  1
  C  C21  1  0.266076  0.758212  0.600518  1
  C  C22  1  0.469540  0.746381  0.449920  1
  C  C23  1  0.390231  0.636063  0.384846  1
  C  C24  1  0.556901  0.068425  0.904672  1
  C  C25  1  0.679520  0.117484  0.750237  1
  C  C26  1  0.879790  0.218326  0.749067  1
  C  C27  1  0.589649  0.102127  0.674959  1
  C  C28  1  0.981327  0.305276  0.672516  1
  C  C29  1  0.695043  0.188410  0.600142  1
  C  C30  1  0.894609  0.291746  0.596492  1
  C  C31  1  0.001664  0.384921  0.513739  1
  C  C32  1  0.750205  0.076496  0.461795  1
  C  C33  1  0.904978  0.069414  0.316637  1
  C  C34  1  0.827852  0.146947  0.231020  1
  C  C35  1  0.058468  0.137926  0.087680  1
  C  C36  1  0.329109  0.045766  0.045756  1
  N  N37  1  0.774762  0.704759  0.185309  1
  N  N38  1  0.146197  0.741005  0.894439  1
  N  N39  1  0.539362  0.040332  0.823673  1
  N  N40  1  0.587255  0.182672  0.524034  1
  H  H41  1  0.609793  0.776300  0.161754  1
  H  H42  1  0.266445  0.486130  0.210758  1
  H  H43  1  0.787461  0.789316  0.026101  1
  H  H44  1  0.632074  0.405101  0.096016  1
  H  H45  1  0.049332  0.887965  0.889510  1
  H  H46  1  0.630755  0.444273  0.875947  1
  H  H47  1  0.833907  0.436983  0.951781  1
  H  H48  1  0.691353  0.668645  0.900946  1
  H  H49  1  0.585632  0.704063  0.674309  1
  H  H50  1  0.413457  0.509077  0.686092  1
  H  H51  1  0.063638  0.742057  0.609126  1
  H  H52  1  0.265539  0.917371  0.586647  1
  H  H53  1  0.360689  0.901455  0.449587  1
  H  H54  1  0.677296  0.740215  0.436441  1
  H  H55  1  0.181098  0.659546  0.388353  1
  H  H56  1  0.478734  0.476007  0.388587  1
  H  H57  1  0.367501  0.012828  0.814583  1
  H  H58  1  0.951500  0.236146  0.806039  1
  H  H59  1  0.426728  0.034073  0.675998  1
  H  H60  1  0.130786  0.387114  0.673083  1
  H  H61  1  0.478731  0.317587  0.505330  1
  H  H62  1  0.128410  0.270287  0.473886  1
  H  H63  1  0.111873  0.492800  0.523553  1
  H  H64  1  0.848463  0.462823  0.477806  1
  H  H65  1  0.072270  0.126829  0.325983  1
  H  H66  1  0.955818  0.906055  0.321483  1
  H  H67  1  0.673596  0.080642  0.215911  1
  H  H68  1  0.762952  0.310437  0.226343  1
  H  H69  1  0.911411  0.077806  0.065103  1
  H  H70  1  0.016846  0.300969  0.075060  1
  H  H71  1  0.377978  0.885912  0.064936  1
  H  H72  1  0.471877  0.121114  0.061208  1
 
# Source:                            Lorenzini_etal:Polymer.54.3529(2013)                                            
# Class:                             organic_polymer_crystal                                                         
# Label:                             polyurethane                                                                    
# Structure prediction method used:  USPEX                                                                           
# Number of atoms:                    72
# Number of atom types:                4
# Atom types:                         O  C  N  H
# Dielectric constant, electronic:   2.98910E+00
# Dielectric constant, ionic:        8.91741E-01
# Dielectric constant, total:        3.88084E+00
# Band gap at the GGA level (eV):    3.51690E+00
# Band gap at the HSE06 level (eV):  4.55580E+00
# Atomization energy (eV/atom):     -5.83459E+00
# Volume of the unit cell (A^3):     5.65754E+02
