# generated using pymatgen
data_H9C7NO2
_symmetry_space_group_name_H-M   'P 1'
_cell_length_a   5.98384058
_cell_length_b   6.71016047
_cell_length_c   14.62151966
_cell_angle_alpha   89.73434615
_cell_angle_beta   91.15702797
_cell_angle_gamma   91.84137545
_symmetry_Int_Tables_number   1
_chemical_formula_structural   H9C7NO2
_chemical_formula_sum   'H36 C28 N4 O8'
_cell_volume   586.66353838
_cell_formula_units_Z   4
loop_
 _symmetry_equiv_pos_site_id
 _symmetry_equiv_pos_as_xyz
  1  'x, y, z'
loop_
 _atom_site_type_symbol
 _atom_site_label
 _atom_site_symmetry_multiplicity
 _atom_site_fract_x
 _atom_site_fract_y
 _atom_site_fract_z
 _atom_site_occupancy
  O  O1  1  0.694631  0.758006  0.687732  1
  O  O2  1  0.332009  0.647237  0.713221  1
  O  O3  1  0.344308  0.619904  0.114549  1
  O  O4  1  0.986753  0.700035  0.152052  1
  O  O5  1  0.077547  0.073847  0.619975  1
  O  O6  1  0.736355  0.227964  0.617832  1
  O  O7  1  0.776955  0.069681  0.034367  1
  O  O8  1  0.622604  0.311306  0.121736  1
  C  C9  1  0.481397  0.699700  0.660873  1
  C  C10  1  0.287218  0.653278  0.508685  1
  C  C11  1  0.071927  0.593395  0.535710  1
  C  C12  1  0.335220  0.659258  0.415615  1
  C  C13  1  0.913630  0.539892  0.467786  1
  C  C14  1  0.174906  0.607234  0.348772  1
  C  C15  1  0.957644  0.546813  0.373995  1
  C  C16  1  0.784088  0.483698  0.304008  1
  C  C17  1  0.174764  0.644412  0.174026  1
  C  C18  1  0.324857  0.708869  0.023685  1
  C  C19  1  0.179648  0.586117  0.955133  1
  C  C20  1  0.971741  0.696714  0.921796  1
  C  C21  1  0.888163  0.631855  0.825868  1
  C  C22  1  0.734333  0.787232  0.786395  1
  C  C23  1  0.872957  0.119760  0.582846  1
  C  C24  1  0.684188  0.054300  0.430217  1
  C  C25  1  0.472930  0.129829  0.446308  1
  C  C26  1  0.740072  0.001696  0.341006  1
  C  C27  1  0.323706  0.150988  0.372421  1
  C  C28  1  0.591489  0.031385  0.267596  1
  C  C29  1  0.377206  0.105425  0.282008  1
  C  C30  1  0.213611  0.136587  0.203732  1
  C  C31  1  0.681999  0.138986  0.112997  1
  C  C32  1  0.731569  0.196797  0.953909  1
  C  C33  1  0.498731  0.143709  0.915092  1
  C  C34  1  0.456040  0.222762  0.818021  1
  C  C35  1  0.240317  0.127848  0.775920  1
  C  C36  1  0.184129  0.221993  0.683689  1
  N  N37  1  0.465614  0.712042  0.567923  1
  N  N38  1  0.258408  0.596705  0.258922  1
  N  N39  1  0.847912  0.023049  0.499896  1
  N  N40  1  0.663037  0.989932  0.177209  1
  H  H41  1  0.608258  0.761849  0.537954  1
  H  H42  1  0.026811  0.592461  0.606684  1
  H  H43  1  0.500823  0.705267  0.394645  1
  H  H44  1  0.750411  0.485320  0.489034  1
  H  H45  1  0.423494  0.568536  0.256542  1
  H  H46  1  0.724958  0.611746  0.265217  1
  H  H47  1  0.644639  0.406494  0.336614  1
  H  H48  1  0.850947  0.386954  0.252678  1
  H  H49  1  0.261902  0.858824  0.031169  1
  H  H50  1  0.499068  0.720054  0.003367  1
  H  H51  1  0.281252  0.555457  0.895853  1
  H  H52  1  0.133821  0.441874  0.986117  1
  H  H53  1  0.840173  0.683376  0.972706  1
  H  H54  1  0.017892  0.856043  0.918616  1
  H  H55  1  0.030561  0.621819  0.781183  1
  H  H56  1  0.802019  0.485728  0.826766  1
  H  H57  1  0.813283  0.935571  0.790838  1
  H  H58  1  0.573281  0.785470  0.819708  1
  H  H59  1  0.987072  0.953132  0.480422  1
  H  H60  1  0.425067  0.168090  0.514654  1
  H  H61  1  0.903420  0.943839  0.328329  1
  H  H62  1  0.160528  0.208556  0.385721  1
  H  H63  1  0.761528  0.870206  0.167767  1
  H  H64  1  0.262388  0.266395  0.162776  1
  H  H65  1  0.046832  0.157422  0.229357  1
  H  H66  1  0.205728  0.010096  0.157233  1
  H  H67  1  0.749635  0.352563  0.974180  1
  H  H68  1  0.862141  0.161418  0.906382  1
  H  H69  1  0.480176  0.981386  0.914075  1
  H  H70  1  0.372718  0.197062  0.961850  1
  H  H71  1  0.444718  0.384852  0.817825  1
  H  H72  1  0.595564  0.190223  0.773602  1
  H  H73  1  0.259583  0.967442  0.767414  1
  H  H74  1  0.101713  0.146381  0.822649  1
  H  H75  1  0.335962  0.272399  0.649307  1
  H  H76  1  0.072521  0.344924  0.690362  1
 
# Source:                            Lorenzini_etal:Polymer.54.3529(2013)                                            
# Class:                             organic_polymer_crystal                                                         
# Label:                             polyurethane                                                                    
# Structure prediction method used:  USPEX                                                                           
# Number of atoms:                    76
# Number of atom types:                4
# Atom types:                         O  C  N  H
# Dielectric constant, electronic:   2.97269E+00
# Dielectric constant, ionic:        7.76253E-01
# Dielectric constant, total:        3.74895E+00
# Band gap at the GGA level (eV):    3.44440E+00
# Band gap at the HSE06 level (eV):  4.55850E+00
# Atomization energy (eV/atom):     -5.78936E+00
# Volume of the unit cell (A^3):     5.86664E+02
