# generated using pymatgen
data_H9C7NO2
_symmetry_space_group_name_H-M   'P 1'
_cell_length_a   6.21064842
_cell_length_b   6.81316906
_cell_length_c   13.87438541
_cell_angle_alpha   83.61866080
_cell_angle_beta   85.47131242
_cell_angle_gamma   84.26288032
_symmetry_Int_Tables_number   1
_chemical_formula_structural   H9C7NO2
_chemical_formula_sum   'H36 C28 N4 O8'
_cell_volume   579.155402483
_cell_formula_units_Z   4
loop_
 _symmetry_equiv_pos_site_id
 _symmetry_equiv_pos_as_xyz
  1  'x, y, z'
loop_
 _atom_site_type_symbol
 _atom_site_label
 _atom_site_symmetry_multiplicity
 _atom_site_fract_x
 _atom_site_fract_y
 _atom_site_fract_z
 _atom_site_occupancy
  O  O1  1  0.077237  0.859255  0.094280  1
  O  O2  1  0.443300  0.753852  0.102196  1
  O  O3  1  0.389059  0.103719  0.524121  1
  O  O4  1  0.722078  0.971903  0.570355  1
  O  O5  1  0.557989  0.279265  0.098784  1
  O  O6  1  0.923626  0.281736  0.126951  1
  O  O7  1  0.884336  0.591887  0.522744  1
  O  O8  1  0.233854  0.491451  0.561460  1
  C  C9  1  0.293923  0.864789  0.066781  1
  C  C10  1  0.487378  0.034160  0.920168  1
  C  C11  1  0.702827  0.960749  0.934602  1
  C  C12  1  0.434761  0.128082  0.828886  1
  C  C13  1  0.859784  0.992850  0.858269  1
  C  C14  1  0.592352  0.146942  0.751277  1
  C  C15  1  0.811523  0.088616  0.766412  1
  C  C16  1  0.987740  0.138376  0.689397  1
  C  C17  1  0.559651  0.088107  0.582272  1
  C  C18  1  0.404118  0.949016  0.456037  1
  C  C19  1  0.192462  0.968046  0.406550  1
  C  C20  1  0.208542  0.828372  0.325974  1
  C  C21  1  0.999321  0.850581  0.271987  1
  C  C22  1  0.006884  0.734451  0.183227  1
  C  C23  1  0.769169  0.317260  0.075242  1
  C  C24  1  0.951895  0.473221  0.922108  1
  C  C25  1  0.152268  0.508435  0.953804  1
  C  C26  1  0.910827  0.521089  0.824350  1
  C  C27  1  0.305640  0.587203  0.884872  1
  C  C28  1  0.064416  0.602177  0.757456  1
  C  C29  1  0.269785  0.631029  0.785849  1
  C  C30  1  0.439733  0.709762  0.713041  1
  C  C31  1  0.053635  0.576967  0.580913  1
  C  C32  1  0.901675  0.452161  0.448785  1
  C  C33  1  0.684304  0.472269  0.404707  1
  C  C34  1  0.698152  0.334682  0.324487  1
  C  C35  1  0.488942  0.350193  0.271472  1
  C  C36  1  0.487743  0.199329  0.197686  1
  N  N37  1  0.313176  0.013086  0.991630  1
  N  N38  1  0.522977  0.212488  0.655577  1
  N  N39  1  0.777656  0.400789  0.980961  1
  N  N40  1  0.992198  0.668286  0.662862  1
  H  H41  1  0.171696  0.094448  0.976700  1
  H  H42  1  0.747396  0.884664  0.003650  1
  H  H43  1  0.267161  0.176549  0.817582  1
  H  H44  1  0.026599  0.938767  0.870142  1
  H  H45  1  0.384452  0.305381  0.649413  1
  H  H46  1  0.083317  0.007976  0.665243  1
  H  H47  1  0.095969  0.230470  0.717629  1
  H  H48  1  0.920684  0.221798  0.625831  1
  H  H49  1  0.543377  0.971093  0.404160  1
  H  H50  1  0.433459  0.804303  0.497463  1
  H  H51  1  0.057664  0.935168  0.459865  1
  H  H52  1  0.156918  0.121038  0.374664  1
  H  H53  1  0.346917  0.858208  0.274482  1
  H  H54  1  0.242137  0.675319  0.357908  1
  H  H55  1  0.865369  0.805456  0.323089  1
  H  H56  1  0.958414  0.006695  0.246862  1
  H  H57  1  0.844824  0.703022  0.167570  1
  H  H58  1  0.112393  0.596154  0.189255  1
  H  H59  1  0.638685  0.398269  0.947759  1
  H  H60  1  0.187930  0.475964  0.029174  1
  H  H61  1  0.756207  0.494110  0.800167  1
  H  H62  1  0.455787  0.625472  0.909585  1
  H  H63  1  0.840744  0.739723  0.661278  1
  H  H64  1  0.527774  0.592597  0.673438  1
  H  H65  1  0.554822  0.782369  0.748787  1
  H  H66  1  0.363762  0.815731  0.658449  1
  H  H67  1  0.033724  0.486654  0.394871  1
  H  H68  1  0.940855  0.302734  0.483868  1
  H  H69  1  0.555482  0.437619  0.460490  1
  H  H70  1  0.645556  0.625949  0.374365  1
  H  H71  1  0.833976  0.367847  0.272411  1
  H  H72  1  0.735567  0.181627  0.356277  1
  H  H73  1  0.352228  0.329490  0.325418  1
  H  H74  1  0.458693  0.498549  0.233218  1
  H  H75  1  0.322901  0.166259  0.188247  1
  H  H76  1  0.588216  0.061384  0.216681  1
 
# Source:                            Lorenzini_etal:Polymer.54.3529(2013)                                            
# Class:                             organic_polymer_crystal                                                         
# Label:                             polyurethane                                                                    
# Structure prediction method used:  USPEX                                                                           
# Number of atoms:                    76
# Number of atom types:                4
# Atom types:                         O  C  N  H
# Dielectric constant, electronic:   2.99193E+00
# Dielectric constant, ionic:        1.93515E+00
# Dielectric constant, total:        4.92708E+00
# Band gap at the GGA level (eV):    3.43360E+00
# Band gap at the HSE06 level (eV):  4.52880E+00
# Atomization energy (eV/atom):     -5.78961E+00
# Volume of the unit cell (A^3):     5.79155E+02
