# generated using pymatgen
data_H11C13N
_symmetry_space_group_name_H-M   'P 1'
_cell_length_a   4.99298699
_cell_length_b   8.18454348
_cell_length_c   11.45153032
_cell_angle_alpha   73.90076552
_cell_angle_beta   73.65398319
_cell_angle_gamma   70.79632783
_symmetry_Int_Tables_number   1
_chemical_formula_structural   H11C13N
_chemical_formula_sum   'H22 C26 N2'
_cell_volume   415.162468285
_cell_formula_units_Z   2
loop_
 _symmetry_equiv_pos_site_id
 _symmetry_equiv_pos_as_xyz
  1  'x, y, z'
loop_
 _atom_site_type_symbol
 _atom_site_label
 _atom_site_symmetry_multiplicity
 _atom_site_fract_x
 _atom_site_fract_y
 _atom_site_fract_z
 _atom_site_occupancy
  C  C1  1  0.262340  0.896575  0.642472  1
  C  C2  1  0.723690  0.640617  0.819462  1
  C  C3  1  0.442581  0.196884  0.799737  1
  C  C4  1  0.619348  0.508536  0.810063  1
  C  C5  1  0.321129  0.073407  0.785460  1
  C  C6  1  0.948584  0.696359  0.727609  1
  C  C7  1  0.614665  0.285125  0.698015  1
  C  C8  1  0.367158  0.033564  0.668829  1
  C  C9  1  0.732555  0.423465  0.708216  1
  C  C10  1  0.060683  0.615048  0.623711  1
  C  C11  1  0.659878  0.241997  0.581925  1
  C  C12  1  0.953872  0.482092  0.615392  1
  C  C13  1  0.536229  0.121660  0.567392  1
  C  C14  1  0.660371  0.277267  0.141452  1
  C  C15  1  0.125304  0.019801  0.324703  1
  C  C16  1  0.802855  0.595133  0.296492  1
  C  C17  1  0.014255  0.889666  0.316263  1
  C  C18  1  0.685297  0.471268  0.280167  1
  C  C19  1  0.344128  0.077926  0.230114  1
  C  C20  1  0.995850  0.673395  0.198810  1
  C  C21  1  0.764746  0.414863  0.167517  1
  C  C22  1  0.114804  0.809990  0.211606  1
  C  C23  1  0.449868  0.997786  0.126014  1
  C  C24  1  0.066753  0.618658  0.084633  1
  C  C25  1  0.335463  0.868239  0.118225  1
  C  C26  1  0.959316  0.490342  0.070739  1
  H  H27  1  0.232018  0.653463  0.549337  1
  H  H28  1  0.787062  0.307750  0.501026  1
  H  H29  1  0.451377  0.785793  0.621085  1
  H  H30  1  0.175195  0.953155  0.557571  1
  H  H31  1  0.896324  0.918371  0.788098  1
  H  H32  1  0.191674  0.008224  0.866710  1
  H  H33  1  0.440526  0.474502  0.881189  1
  H  H34  1  0.631415  0.704542  0.898230  1
  H  H35  1  0.400483  0.223859  0.891681  1
  H  H36  1  0.567716  0.096472  0.475457  1
  H  H37  1  0.052265  0.421062  0.535174  1
  H  H38  1  0.623066  0.033536  0.051537  1
  H  H39  1  0.203669  0.678380  0.004306  1
  H  H40  1  0.848545  0.165663  0.121222  1
  H  H41  1  0.574300  0.332890  0.055867  1
  H  H42  1  0.290918  0.303823  0.285171  1
  H  H43  1  0.530510  0.419485  0.356782  1
  H  H44  1  0.842972  0.852513  0.391409  1
  H  H45  1  0.039015  0.082350  0.404171  1
  H  H46  1  0.736105  0.633343  0.386060  1
  H  H47  1  0.021975  0.449375  0.982333  1
  H  H48  1  0.428393  0.808836  0.037536  1
  N  N49  1  0.052743  0.825641  0.744455  1
  N  N50  1  0.448946  0.208922  0.244250  1
 
# Source:                            VSharma_etal:unpublished                                                        
# Class:                             organic_polymer_crystal                                                         
# Label:                             CH2-C6H4-C6H4-NH                                                                
# Structure prediction method used:  USPEX                                                                           
# Number of atoms:                    50
# Number of atom types:                3
# Atom types:                         C  H  N
# Dielectric constant, electronic:   3.77132E+00
# Dielectric constant, ionic:        4.22803E-01
# Dielectric constant, total:        4.19412E+00
# Band gap at the GGA level (eV):    2.42030E+00
# Band gap at the HSE06 level (eV):  3.37890E+00
# Atomization energy (eV/atom):     -6.15047E+00
# Volume of the unit cell (A^3):     4.15162E+02
