# generated using pymatgen
data_H10C13O
_symmetry_space_group_name_H-M   'P 1'
_cell_length_a   7.59945941
_cell_length_b   8.85927128
_cell_length_c   13.72736691
_cell_angle_alpha   71.50937056
_cell_angle_beta   85.02661606
_cell_angle_gamma   68.85378206
_symmetry_Int_Tables_number   1
_chemical_formula_structural   H10C13O
_chemical_formula_sum   'H40 C52 O4'
_cell_volume   817.070639693
_cell_formula_units_Z   4
loop_
 _symmetry_equiv_pos_site_id
 _symmetry_equiv_pos_as_xyz
  1  'x, y, z'
loop_
 _atom_site_type_symbol
 _atom_site_label
 _atom_site_symmetry_multiplicity
 _atom_site_fract_x
 _atom_site_fract_y
 _atom_site_fract_z
 _atom_site_occupancy
  C  C1  1  0.102598  0.597850  0.165975  1
  C  C2  1  0.603863  0.087111  0.173545  1
  C  C3  1  0.122460  0.485359  0.265671  1
  C  C4  1  0.212755  0.701088  0.136349  1
  C  C5  1  0.763670  0.940350  0.206967  1
  C  C6  1  0.583773  0.231890  0.200815  1
  C  C7  1  0.071819  0.640217  0.666065  1
  C  C8  1  0.572328  0.127622  0.674226  1
  C  C9  1  0.148240  0.769008  0.629527  1
  C  C10  1  0.128069  0.519978  0.763159  1
  C  C11  1  0.500429  0.164636  0.764432  1
  C  C12  1  0.763392  0.095604  0.653868  1
  C  C13  1  0.278374  0.779090  0.689655  1
  C  C14  1  0.260625  0.531445  0.822583  1
  C  C15  1  0.618725  0.168181  0.834416  1
  C  C16  1  0.880427  0.103528  0.723868  1
  C  C17  1  0.339980  0.659176  0.787267  1
  C  C18  1  0.811846  0.139164  0.815609  1
  C  C19  1  0.488200  0.669052  0.845846  1
  C  C20  1  0.935622  0.146336  0.890427  1
  C  C21  1  0.626446  0.732302  0.792971  1
  C  C22  1  0.497070  0.619111  0.953971  1
  C  C23  1  0.859851  0.246047  0.956613  1
  C  C24  1  0.131487  0.055458  0.898299  1
  C  C25  1  0.763968  0.747822  0.845665  1
  C  C26  1  0.633599  0.637034  0.006786  1
  C  C27  1  0.975043  0.259513  0.024406  1
  C  C28  1  0.247508  0.069375  0.966190  1
  C  C29  1  0.768532  0.702656  0.952748  1
  C  C30  1  0.170767  0.174599  0.028288  1
  C  C31  1  0.917269  0.728776  0.004614  1
  C  C32  1  0.290404  0.210153  0.093991  1
  C  C33  1  0.247879  0.479738  0.335341  1
  C  C34  1  0.344386  0.688883  0.206566  1
  C  C35  1  0.901676  0.936937  0.268339  1
  C  C36  1  0.725814  0.227661  0.261139  1
  C  C37  1  0.362582  0.579933  0.308135  1
  C  C38  1  0.887001  0.081152  0.295932  1
  C  C39  1  0.490855  0.568715  0.387632  1
  C  C40  1  0.041339  0.077117  0.356720  1
  C  C41  1  0.441260  0.531505  0.491576  1
  C  C42  1  0.664403  0.593159  0.363191  1
  C  C43  1  0.230549  0.986739  0.340887  1
  C  C44  1  0.006472  0.163931  0.430179  1
  C  C45  1  0.562679  0.514095  0.568067  1
  C  C46  1  0.784614  0.578093  0.439727  1
  C  C47  1  0.378659  0.983304  0.395622  1
  C  C48  1  0.154702  0.159562  0.485638  1
  C  C49  1  0.736686  0.534855  0.543311  1
  C  C50  1  0.342641  0.070605  0.468152  1
  C  C51  1  0.872422  0.503435  0.627191  1
  C  C52  1  0.508162  0.074186  0.519639  1
  H  H53  1  0.774243  0.829654  0.185931  1
  H  H54  1  0.195348  0.792950  0.060911  1
  H  H55  1  0.461176  0.346474  0.176589  1
  H  H56  1  0.036993  0.405903  0.287544  1
  H  H57  1  0.103729  0.859112  0.553938  1
  H  H58  1  0.352661  0.186812  0.778894  1
  H  H59  1  0.069049  0.420573  0.793924  1
  H  H60  1  0.822136  0.064010  0.585469  1
  H  H61  1  0.332614  0.881917  0.661287  1
  H  H62  1  0.562125  0.189398  0.906107  1
  H  H63  1  0.305441  0.435937  0.896646  1
  H  H64  1  0.027801  0.080869  0.706173  1
  H  H65  1  0.628353  0.767758  0.709852  1
  H  H66  1  0.710081  0.317975  0.953203  1
  H  H67  1  0.393932  0.568478  0.997396  1
  H  H68  1  0.194732  0.971810  0.851759  1
  H  H69  1  0.868519  0.796574  0.803109  1
  H  H70  1  0.913706  0.338747  0.073478  1
  H  H71  1  0.636622  0.597755  0.090022  1
  H  H72  1  0.397569  0.997390  0.970815  1
  H  H73  1  0.042034  0.720505  0.957012  1
  H  H74  1  0.866232  0.853638  0.017526  1
  H  H75  1  0.311386  0.330968  0.053710  1
  H  H76  1  0.222978  0.221386  0.166471  1
  H  H77  1  0.258492  0.394918  0.412573  1
  H  H78  1  0.021142  0.820771  0.296802  1
  H  H79  1  0.425979  0.772296  0.182004  1
  H  H80  1  0.711294  0.341645  0.279717  1
  H  H81  1  0.305377  0.518722  0.513012  1
  H  H82  1  0.261697  0.922376  0.283128  1
  H  H83  1  0.707087  0.620319  0.283911  1
  H  H84  1  0.862785  0.236128  0.443831  1
  H  H85  1  0.522251  0.483524  0.647585  1
  H  H86  1  0.523160  0.913623  0.381269  1
  H  H87  1  0.917447  0.597598  0.419438  1
  H  H88  1  0.124297  0.226609  0.542275  1
  H  H89  1  0.804836  0.489050  0.701673  1
  H  H90  1  0.997480  0.388124  0.633947  1
  H  H91  1  0.565930  0.167258  0.467913  1
  H  H92  1  0.622128  0.949034  0.540025  1
  O  O93  1  0.968442  0.596737  0.104067  1
  O  O94  1  0.473141  0.073540  0.115157  1
  O  O95  1  0.936734  0.648165  0.600853  1
  O  O96  1  0.441665  0.123890  0.611419  1
 
# Source:                            VSharma_etal:unpublished                                                        
# Class:                             organic_polymer_crystal                                                         
# Label:                             C6H4-C6H4-CH2-O                                                                 
# Structure prediction method used:  USPEX                                                                           
# Number of atoms:                    96
# Number of atom types:                3
# Atom types:                         C  H  O
# Dielectric constant, electronic:   3.48379E+00
# Dielectric constant, ionic:        3.09458E-01
# Dielectric constant, total:        3.79325E+00
# Band gap at the GGA level (eV):    2.92950E+00
# Band gap at the HSE06 level (eV):  3.86110E+00
# Atomization energy (eV/atom):     -6.19507E+00
# Volume of the unit cell (A^3):     8.17071E+02
