# generated using pymatgen
data_H6C7N2O
_symmetry_space_group_name_H-M   'P 1'
_cell_length_a   4.76195726
_cell_length_b   7.09994332
_cell_length_c   8.11156635
_cell_angle_alpha   92.31184605
_cell_angle_beta   90.00251107
_cell_angle_gamma   109.58990852
_symmetry_Int_Tables_number   1
_chemical_formula_structural   H6C7N2O
_chemical_formula_sum   'H12 C14 N4 O2'
_cell_volume   258.137424571
_cell_formula_units_Z   2
loop_
 _symmetry_equiv_pos_site_id
 _symmetry_equiv_pos_as_xyz
  1  'x, y, z'
loop_
 _atom_site_type_symbol
 _atom_site_label
 _atom_site_symmetry_multiplicity
 _atom_site_fract_x
 _atom_site_fract_y
 _atom_site_fract_z
 _atom_site_occupancy
  O  O1  1  0.862383  0.312514  0.656271  1
  O  O2  1  0.950123  0.312505  0.156226  1
  C  C3  1  0.765883  0.894861  0.527245  1
  C  C4  1  0.623071  0.704686  0.456778  1
  C  C5  1  0.053499  0.004786  0.477025  1
  C  C6  1  0.758983  0.620213  0.335474  1
  C  C7  1  0.126502  0.312508  0.656248  1
  C  C8  1  0.189409  0.920314  0.355719  1
  C  C9  1  0.046599  0.730139  0.285256  1
  C  C10  1  0.628962  0.894842  0.027253  1
  C  C11  1  0.581635  0.704673  0.956770  1
  C  C12  1  0.451251  0.004781  0.977042  1
  C  C13  1  0.361266  0.620220  0.835454  1
  C  C14  1  0.685997  0.312494  0.156255  1
  C  C15  1  0.230888  0.920329  0.855724  1
  C  C16  1  0.183558  0.730160  0.785244  1
  H  H17  1  0.414284  0.002432  0.320316  1
  H  H18  1  0.543338  0.403762  0.761720  1
  H  H19  1  0.452017  0.221215  0.550755  1
  H  H20  1  0.398195  0.622568  0.492181  1
  H  H21  1  0.655775  0.955180  0.621378  1
  H  H22  1  0.156708  0.669820  0.191122  1
  H  H23  1  0.088121  0.002457  0.820318  1
  H  H24  1  0.360469  0.403775  0.261755  1
  H  H25  1  0.269158  0.221226  0.050788  1
  H  H26  1  0.724404  0.622545  0.992174  1
  H  H27  1  0.799393  0.955153  0.121385  1
  H  H28  1  0.013128  0.669849  0.691111  1
  N  N29  1  0.348272  0.434126  0.760196  1
  N  N30  1  0.226600  0.190887  0.552268  1
  N  N31  1  0.585886  0.434109  0.260238  1
  N  N32  1  0.464233  0.190870  0.052309  1
 
# Source:                            VSharma_etal:NatCommun.5.4845(2014)                                             
# Class:                             organic_polymer_crystal                                                         
# Label:                             Polyurea                                                                        
# Structure prediction method used:  USPEX                                                                           
# Number of atoms:                    32
# Number of atom types:                4
# Atom types:                         O  C  H  N
# Dielectric constant, electronic:   3.89054E+00
# Dielectric constant, ionic:        1.02059E+00
# Dielectric constant, total:        4.91114E+00
# Band gap at the GGA level (eV):    2.44360E+00
# Band gap at the HSE06 level (eV):  3.43800E+00
# Atomization energy (eV/atom):     -6.30909E+00
# Volume of the unit cell (A^3):     2.58137E+02
