# generated using pymatgen
data_H6C7SN2
_symmetry_space_group_name_H-M   'P 1'
_cell_length_a   5.39203853
_cell_length_b   7.02965151
_cell_length_c   7.83713455
_cell_angle_alpha   94.17000258
_cell_angle_beta   90.49346840
_cell_angle_gamma   91.78769844
_symmetry_Int_Tables_number   1
_chemical_formula_structural   H6C7SN2
_chemical_formula_sum   'H12 C14 S2 N4'
_cell_volume   296.111683614
_cell_formula_units_Z   2
loop_
 _symmetry_equiv_pos_site_id
 _symmetry_equiv_pos_as_xyz
  1  'x, y, z'
loop_
 _atom_site_type_symbol
 _atom_site_label
 _atom_site_symmetry_multiplicity
 _atom_site_fract_x
 _atom_site_fract_y
 _atom_site_fract_z
 _atom_site_occupancy
  C  C1  1  0.581948  0.127875  0.924127  1
  C  C2  1  0.680590  0.116102  0.603213  1
  C  C3  1  0.468686  0.045439  0.512124  1
  C  C4  1  0.463680  0.041807  0.333118  1
  C  C5  1  0.669680  0.108953  0.245524  1
  C  C6  1  0.877376  0.187173  0.337681  1
  C  C7  1  0.882390  0.191117  0.514709  1
  C  C8  1  0.820549  0.639004  0.951428  1
  C  C9  1  0.712301  0.610510  0.628855  1
  C  C10  1  0.502843  0.542433  0.531053  1
  C  C11  1  0.501903  0.544341  0.355955  1
  C  C12  1  0.709908  0.615672  0.269983  1
  C  C13  1  0.915501  0.689067  0.366220  1
  C  C14  1  0.916871  0.686317  0.545036  1
  H  H15  1  0.906586  0.074949  0.805788  1
  H  H16  1  0.314954  0.984126  0.579514  1
  H  H17  1  0.306936  0.977198  0.261025  1
  H  H18  1  0.874489  0.017385  0.040298  1
  H  H19  1  0.034894  0.241175  0.268613  1
  H  H20  1  0.043766  0.248988  0.586441  1
  H  H21  1  0.522652  0.515366  0.826493  1
  H  H22  1  0.343394  0.484082  0.595021  1
  H  H23  1  0.341708  0.487387  0.282424  1
  H  H24  1  0.503173  0.552898  0.058921  1
  H  H25  1  0.074705  0.746390  0.302837  1
  H  H26  1  0.077773  0.740406  0.618085  1
  N  N27  1  0.723630  0.096666  0.780488  1
  N  N28  1  0.704548  0.074283  0.065075  1
  N  N29  1  0.686743  0.586424  0.804891  1
  N  N30  1  0.678138  0.603850  0.090727  1
  S  S31  1  0.301111  0.232013  0.927841  1
  S  S32  1  0.111140  0.739020  0.958443  1
 
# Source:                            VSharma_etal:NatCommun.5.4845(2014)                                             
# Class:                             organic_polymer_crystal                                                         
# Label:                             Polythiourea                                                                    
# Structure prediction method used:  USPEX                                                                           
# Number of atoms:                    32
# Number of atom types:                4
# Atom types:                         C  H  N  S
# Dielectric constant, electronic:   4.49536E+00
# Dielectric constant, ionic:        1.50962E+00
# Dielectric constant, total:        6.00499E+00
# Band gap at the GGA level (eV):    1.67810E+00
# Band gap at the HSE06 level (eV):  2.50620E+00
# Atomization energy (eV/atom):     -6.09398E+00
# Volume of the unit cell (A^3):     2.96112E+02
