# generated using pymatgen
data_H6C7N2O
_symmetry_space_group_name_H-M   'P 1'
_cell_length_a   6.85784628
_cell_length_b   6.88418636
_cell_length_c   6.90043087
_cell_angle_alpha   93.77404321
_cell_angle_beta   116.03689150
_cell_angle_gamma   115.27359752
_symmetry_Int_Tables_number   1
_chemical_formula_structural   H6C7N2O
_chemical_formula_sum   'H12 C14 N4 O2'
_cell_volume   251.509643043
_cell_formula_units_Z   2
loop_
 _symmetry_equiv_pos_site_id
 _symmetry_equiv_pos_as_xyz
  1  'x, y, z'
loop_
 _atom_site_type_symbol
 _atom_site_label
 _atom_site_symmetry_multiplicity
 _atom_site_fract_x
 _atom_site_fract_y
 _atom_site_fract_z
 _atom_site_occupancy
  O  O1  1  0.889509  0.202502  0.431786  1
  O  O2  1  0.393119  0.431994  0.203432  1
  C  C3  1  0.688502  0.845494  0.039772  1
  C  C4  1  0.601190  0.635957  0.900671  1
  C  C5  1  0.730975  0.031484  0.957675  1
  C  C6  1  0.551718  0.603014  0.677556  1
  C  C7  1  0.891006  0.326348  0.308412  1
  C  C8  1  0.681507  0.998542  0.734562  1
  C  C9  1  0.594193  0.789006  0.595462  1
  C  C10  1  0.190065  0.039830  0.845755  1
  C  C11  1  0.103177  0.900801  0.636256  1
  C  C12  1  0.230608  0.957263  0.031862  1
  C  C13  1  0.052088  0.677250  0.603355  1
  C  C14  1  0.391664  0.308153  0.326807  1
  C  C15  1  0.179517  0.733710  0.998961  1
  C  C16  1  0.092634  0.594684  0.789463  1
  H  H17  1  0.724090  0.141188  0.670367  1
  H  H18  1  0.932341  0.631567  0.264301  1
  H  H19  1  0.852801  0.370323  0.003963  1
  H  H20  1  0.558616  0.493313  0.964869  1
  H  H21  1  0.713802  0.861170  0.206338  1
  H  H22  1  0.568890  0.773329  0.428895  1
  H  H23  1  0.220983  0.669164  0.142001  1
  H  H24  1  0.429912  0.264176  0.631270  1
  H  H25  1  0.350405  0.002955  0.370925  1
  H  H26  1  0.061712  0.965347  0.493216  1
  H  H27  1  0.216466  0.206849  0.861245  1
  H  H28  1  0.066238  0.427668  0.773974  1
  N  N29  1  0.966874  0.552087  0.383425  1
  N  N30  1  0.817318  0.251618  0.083018  1
  N  N31  1  0.465368  0.382879  0.552208  1
  N  N32  1  0.315824  0.082421  0.251795  1
 
# Source:                            VSharma_etal:NatCommun.5.4845(2014)                                             
# Class:                             organic_polymer_crystal                                                         
# Label:                             Polyurea                                                                        
# Structure prediction method used:  USPEX                                                                           
# Number of atoms:                    32
# Number of atom types:                4
# Atom types:                         O  C  H  N
# Dielectric constant, electronic:   4.04684E+00
# Dielectric constant, ionic:        1.69202E+00
# Dielectric constant, total:        5.73886E+00
# Band gap at the GGA level (eV):    2.63800E+00
# Band gap at the HSE06 level (eV):  3.64680E+00
# Atomization energy (eV/atom):     -6.29851E+00
# Volume of the unit cell (A^3):     2.51510E+02
