# generated using pymatgen
data_H5C8NO2
_symmetry_space_group_name_H-M   'P 1'
_cell_length_a   3.79735760
_cell_length_b   7.17050702
_cell_length_c   10.81028580
_cell_angle_alpha   78.28018700
_cell_angle_beta   89.15997321
_cell_angle_gamma   78.38526125
_symmetry_Int_Tables_number   1
_chemical_formula_structural   H5C8NO2
_chemical_formula_sum   'H10 C16 N2 O4'
_cell_volume   282.209257931
_cell_formula_units_Z   2
loop_
 _symmetry_equiv_pos_site_id
 _symmetry_equiv_pos_as_xyz
  1  'x, y, z'
loop_
 _atom_site_type_symbol
 _atom_site_label
 _atom_site_symmetry_multiplicity
 _atom_site_fract_x
 _atom_site_fract_y
 _atom_site_fract_z
 _atom_site_occupancy
  C  C1  1  0.520139  0.880418  0.911172  1
  C  C2  1  0.710715  0.669760  0.941931  1
  C  C3  1  0.713172  0.567096  0.068123  1
  C  C4  1  0.875758  0.571376  0.850064  1
  C  C5  1  0.010855  0.370184  0.879848  1
  C  C6  1  0.840255  0.369234  0.096986  1
  C  C7  1  0.977682  0.267060  0.002834  1
  C  C8  1  0.020503  0.053653  0.044600  1
  C  C9  1  0.020402  0.379943  0.411175  1
  C  C10  1  0.211008  0.169297  0.441870  1
  C  C11  1  0.214300  0.066716  0.568111  1
  C  C12  1  0.375240  0.070855  0.349919  1
  C  C13  1  0.510489  0.869674  0.379702  1
  C  C14  1  0.341526  0.868866  0.596973  1
  C  C15  1  0.478215  0.766618  0.502775  1
  C  C16  1  0.521021  0.553216  0.544638  1
  H  H17  1  0.196275  0.780142  0.047037  1
  H  H18  1  0.617843  0.639443  0.144459  1
  H  H19  1  0.823906  0.290803  0.192307  1
  H  H20  1  0.889574  0.648990  0.754160  1
  H  H21  1  0.129113  0.295284  0.807479  1
  H  H22  1  0.696924  0.279634  0.547201  1
  H  H23  1  0.119564  0.139139  0.644470  1
  H  H24  1  0.325880  0.790471  0.692345  1
  H  H25  1  0.388314  0.148414  0.253962  1
  H  H26  1  0.628147  0.794723  0.307278  1
  N  N27  1  0.240041  0.907664  0.994935  1
  N  N28  1  0.740503  0.407151  0.495025  1
  O  O29  1  0.597334  0.008294  0.826505  1
  O  O30  1  0.835977  0.990293  0.133582  1
  O  O31  1  0.097408  0.507854  0.326494  1
  O  O32  1  0.336534  0.489982  0.633669  1
 
# Source:                            VSharma_etal:NatCommun.5.4845(2014)                                             
# Class:                             organic_polymer_crystal                                                         
# Label:                             Polyimide                                                                       
# Structure prediction method used:  USPEX                                                                           
# Number of atoms:                    32
# Number of atom types:                4
# Atom types:                         C  H  N  O
# Dielectric constant, electronic:   3.57196E+00
# Dielectric constant, ionic:        1.02509E+00
# Dielectric constant, total:        4.59705E+00
# Band gap at the GGA level (eV):    2.40360E+00
# Band gap at the HSE06 level (eV):  3.40470E+00
# Atomization energy (eV/atom):     -6.47600E+00
# Volume of the unit cell (A^3):     2.82209E+02
