# generated using pymatgen
data_SnH6(CO)4
_symmetry_space_group_name_H-M   'P 1'
_cell_length_a   4.83349771
_cell_length_b   5.96126313
_cell_length_c   5.96204773
_cell_angle_alpha   61.43358056
_cell_angle_beta   67.95515787
_cell_angle_gamma   67.93978573
_symmetry_Int_Tables_number   1
_chemical_formula_structural   SnH6(CO)4
_chemical_formula_sum   'Sn1 H6 C4 O4'
_cell_volume   135.727017829
_cell_formula_units_Z   1
loop_
 _symmetry_equiv_pos_site_id
 _symmetry_equiv_pos_as_xyz
  1  'x, y, z'
loop_
 _atom_site_type_symbol
 _atom_site_label
 _atom_site_symmetry_multiplicity
 _atom_site_fract_x
 _atom_site_fract_y
 _atom_site_fract_z
 _atom_site_occupancy
  C  C1  1  0.969705  0.872649  0.515810  1
  C  C2  1  0.076184  0.232348  0.875475  1
  C  C3  1  0.444627  0.500235  0.143421  1
  C  C4  1  0.601259  0.604741  0.247911  1
  H  H5  1  0.929735  0.776093  0.419396  1
  H  H6  1  0.087454  0.027534  0.377028  1
  H  H7  1  0.087739  0.733973  0.670555  1
  H  H8  1  0.958204  0.371042  0.720701  1
  H  H9  1  0.958393  0.077473  0.014221  1
  H  H10  1  0.116123  0.328878  0.971928  1
  O  O11  1  0.385486  0.645054  0.918667  1
  O  O12  1  0.385487  0.275463  0.288254  1
  O  O13  1  0.660441  0.829493  0.103051  1
  O  O14  1  0.660360  0.459959  0.472684  1
  Sn  Sn15  1  0.522954  0.052475  0.695678  1
 
# Source:                            Baldwin_etal:Adv.Mater.27.346(2015).and.Macromolecules.48.2422(2015)            
# Class:                             organometallic_polymer_crystal                                                  
# Label:                             polyesters_intra                                                                
# Structure prediction method used:  minima-hopping                                                                  
# Number of atoms:                    15
# Number of atom types:                4
# Atom types:                         C  H  O Sn
# Dielectric constant, electronic:   3.26796E+00
# Dielectric constant, ionic:        5.20239E+00
# Dielectric constant, total:        8.47035E+00
# Band gap at the GGA level (eV):    3.21690E+00
# Band gap at the HSE06 level (eV):  4.85740E+00
# Atomization energy (eV/atom):     -5.55970E+00
# Volume of the unit cell (A^3):     1.35727E+02
