# generated using pymatgen
data_SnH12C7O4
_symmetry_space_group_name_H-M   'P 1'
_cell_length_a   4.85480807
_cell_length_b   6.01663444
_cell_length_c   7.07723807
_cell_angle_alpha   96.84928943
_cell_angle_beta   91.46037275
_cell_angle_gamma   97.88679401
_symmetry_Int_Tables_number   1
_chemical_formula_structural   SnH12C7O4
_chemical_formula_sum   'Sn1 H12 C7 O4'
_cell_volume   203.122435447
_cell_formula_units_Z   1
loop_
 _symmetry_equiv_pos_site_id
 _symmetry_equiv_pos_as_xyz
  1  'x, y, z'
loop_
 _atom_site_type_symbol
 _atom_site_label
 _atom_site_symmetry_multiplicity
 _atom_site_fract_x
 _atom_site_fract_y
 _atom_site_fract_z
 _atom_site_occupancy
  C  C1  1  0.076219  0.982082  0.785563  1
  C  C2  1  0.012864  0.365650  0.483316  1
  C  C3  1  0.684221  0.454537  0.954237  1
  C  C4  1  0.617898  0.836919  0.364373  1
  C  C5  1  0.520879  0.324952  0.095254  1
  C  C6  1  0.610816  0.088786  0.098286  1
  C  C7  1  0.442897  0.951634  0.237787  1
  H  H8  1  0.323682  0.057023  0.331248  1
  H  H9  1  0.285817  0.819753  0.163580  1
  H  H10  1  0.584849  0.994921  0.955764  1
  H  H11  1  0.831630  0.109359  0.138098  1
  H  H12  1  0.563631  0.419573  0.237086  1
  H  H13  1  0.299643  0.315903  0.060451  1
  H  H14  1  0.273504  0.025457  0.720343  1
  H  H15  1  0.939096  0.106664  0.768387  1
  H  H16  1  0.104428  0.962449  0.934562  1
  H  H17  1  0.050004  0.408742  0.340383  1
  H  H18  1  0.201856  0.333446  0.554505  1
  H  H19  1  0.848510  0.223927  0.482800  1
  O  O20  1  0.545950  0.518872  0.813346  1
  O  O21  1  0.946997  0.493933  0.963669  1
  O  O22  1  0.503728  0.753470  0.511118  1
  O  O23  1  0.870999  0.821805  0.336501  1
  Sn  Sn24  1  0.890202  0.658994  0.644702  1
 
# Source:                            Baldwin_etal:Adv.Mater.27.346(2015).and.Macromolecules.48.2422(2015)            
# Class:                             organometallic_polymer_crystal                                                  
# Label:                             polyesters_intra                                                                
# Structure prediction method used:  minima-hopping                                                                  
# Number of atoms:                    24
# Number of atom types:                4
# Atom types:                         C  H  O Sn
# Dielectric constant, electronic:   2.91317E+00
# Dielectric constant, ionic:        1.99905E+00
# Dielectric constant, total:        4.91222E+00
# Band gap at the GGA level (eV):    4.54050E+00
# Band gap at the HSE06 level (eV):  6.29770E+00
# Atomization energy (eV/atom):     -5.40772E+00
# Volume of the unit cell (A^3):     2.03122E+02
