# generated using pymatgen
data_SnH14(C2O)4
_symmetry_space_group_name_H-M   'P 1'
_cell_length_a   4.92565052
_cell_length_b   5.81471716
_cell_length_c   8.17132551
_cell_angle_alpha   83.15401923
_cell_angle_beta   77.83506389
_cell_angle_gamma   84.98369007
_symmetry_Int_Tables_number   1
_chemical_formula_structural   SnH14(C2O)4
_chemical_formula_sum   'Sn1 H14 C8 O4'
_cell_volume   226.681881593
_cell_formula_units_Z   1
loop_
 _symmetry_equiv_pos_site_id
 _symmetry_equiv_pos_as_xyz
  1  'x, y, z'
loop_
 _atom_site_type_symbol
 _atom_site_label
 _atom_site_symmetry_multiplicity
 _atom_site_fract_x
 _atom_site_fract_y
 _atom_site_fract_z
 _atom_site_occupancy
  C  C1  1  0.714957  0.029191  0.576614  1
  C  C2  1  0.803811  0.398138  0.834772  1
  C  C3  1  0.275733  0.884448  0.975647  1
  C  C4  1  0.512551  0.536275  0.422884  1
  C  C5  1  0.142736  0.230673  0.144805  1
  C  C6  1  0.330452  0.226338  0.273713  1
  C  C7  1  0.407109  0.479473  0.273656  1
  C  C8  1  0.060317  0.995459  0.107754  1
  H  H9  1  0.864594  0.013661  0.064765  1
  H  H10  1  0.027547  0.874020  0.222429  1
  H  H11  1  0.560346  0.528732  0.160597  1
  H  H12  1  0.216528  0.588154  0.271605  1
  H  H13  1  0.218392  0.161603  0.398676  1
  H  H14  1  0.516599  0.111248  0.241448  1
  H  H15  1  0.992599  0.343615  0.748995  1
  H  H16  1  0.953060  0.334197  0.191654  1
  H  H17  1  0.542368  0.151292  0.621211  1
  H  H18  1  0.905058  0.074777  0.608901  1
  H  H19  1  0.742597  0.020575  0.442231  1
  H  H20  1  0.854689  0.465462  0.941847  1
  H  H21  1  0.662188  0.259909  0.872710  1
  H  H22  1  0.242281  0.325360  0.026508  1
  O  O23  1  0.534157  0.894886  0.968601  1
  O  O24  1  0.196007  0.778411  0.862927  1
  O  O25  1  0.330331  0.576278  0.560479  1
  O  O26  1  0.768218  0.554622  0.419162  1
  Sn  Sn27  1  0.616543  0.694052  0.705920  1
 
# Source:                            Baldwin_etal:Adv.Mater.27.346(2015).and.Macromolecules.48.2422(2015)            
# Class:                             organometallic_polymer_crystal                                                  
# Label:                             polyesters_intra                                                                
# Structure prediction method used:  minima-hopping                                                                  
# Number of atoms:                    27
# Number of atom types:                4
# Atom types:                         C  H  O Sn
# Dielectric constant, electronic:   2.85856E+00
# Dielectric constant, ionic:        1.47397E+00
# Dielectric constant, total:        4.33252E+00
# Band gap at the GGA level (eV):    4.61950E+00
# Band gap at the HSE06 level (eV):  6.34970E+00
# Atomization energy (eV/atom):     -5.37851E+00
# Volume of the unit cell (A^3):     2.26682E+02
