# generated using pymatgen
data_SnH28C15O4
_symmetry_space_group_name_H-M   'P 1'
_cell_length_a   5.07640884
_cell_length_b   6.31025912
_cell_length_c   11.88281116
_cell_angle_alpha   93.47133207
_cell_angle_beta   100.98256256
_cell_angle_gamma   92.23858958
_symmetry_Int_Tables_number   1
_chemical_formula_structural   SnH28C15O4
_chemical_formula_sum   'Sn1 H28 C15 O4'
_cell_volume   372.492850447
_cell_formula_units_Z   1
loop_
 _symmetry_equiv_pos_site_id
 _symmetry_equiv_pos_as_xyz
  1  'x, y, z'
loop_
 _atom_site_type_symbol
 _atom_site_label
 _atom_site_symmetry_multiplicity
 _atom_site_fract_x
 _atom_site_fract_y
 _atom_site_fract_z
 _atom_site_occupancy
  C  C1  1  0.230290  0.559686  0.932556  1
  C  C2  1  0.314548  0.349938  0.254202  1
  C  C3  1  0.644015  0.111507  0.008423  1
  C  C4  1  0.630056  0.821921  0.222122  1
  C  C5  1  0.196642  0.033989  0.476463  1
  C  C6  1  0.020304  0.872625  0.389311  1
  C  C7  1  0.801523  0.981006  0.307647  1
  C  C8  1  0.618642  0.883701  0.741539  1
  C  C9  1  0.550138  0.556301  0.594008  1
  C  C10  1  0.192636  0.303228  0.650142  1
  C  C11  1  0.829746  0.004173  0.836551  1
  C  C12  1  0.808412  0.948498  0.960630  1
  C  C13  1  0.689449  0.653044  0.714173  1
  C  C14  1  0.051623  0.112877  0.571840  1
  C  C15  1  0.248231  0.500390  0.584287  1
  H  H16  1  0.154418  0.639047  0.615987  1
  H  H17  1  0.153288  0.472325  0.493471  1
  H  H18  1  0.849090  0.156734  0.532528  1
  H  H19  1  0.023388  0.980145  0.624354  1
  H  H20  1  0.906747  0.653071  0.720140  1
  H  H21  1  0.645399  0.550036  0.780233  1
  H  H22  1  0.812703  0.176175  0.830131  1
  H  H23  1  0.031497  0.971674  0.822665  1
  H  H24  1  0.005766  0.951430  0.015906  1
  H  H25  1  0.711816  0.790681  0.959024  1
  H  H26  1  0.382310  0.254017  0.699999  1
  H  H27  1  0.068120  0.343740  0.713047  1
  H  H28  1  0.648559  0.411561  0.573068  1
  H  H29  1  0.580224  0.667665  0.529414  1
  H  H30  1  0.608151  0.968776  0.663693  1
  H  H31  1  0.419098  0.888952  0.764100  1
  H  H32  1  0.670823  0.068428  0.354735  1
  H  H33  1  0.894529  0.094595  0.259029  1
  H  H34  1  0.142795  0.786264  0.338050  1
  H  H35  1  0.922827  0.755818  0.435006  1
  H  H36  1  0.130750  0.425509  0.264780  1
  H  H37  1  0.382499  0.961724  0.513989  1
  H  H38  1  0.018466  0.509305  0.919330  1
  H  H39  1  0.258270  0.731315  0.933575  1
  H  H40  1  0.324915  0.478079  0.868765  1
  H  H41  1  0.289163  0.177762  0.245549  1
  H  H42  1  0.482212  0.404823  0.323302  1
  H  H43  1  0.256657  0.167976  0.431190  1
  O  O44  1  0.769197  0.282957  0.064904  1
  O  O45  1  0.389841  0.095423  0.990825  1
  O  O46  1  0.754066  0.670614  0.176131  1
  O  O47  1  0.377072  0.825884  0.196335  1
  Sn  Sn48  1  0.411499  0.455800  0.097402  1
 
# Source:                            Baldwin_etal:Adv.Mater.27.346(2015).and.Macromolecules.48.2422(2015)            
# Class:                             organometallic_polymer_crystal                                                  
# Label:                             polyesters_intra                                                                
# Structure prediction method used:  minima-hopping                                                                  
# Number of atoms:                    48
# Number of atom types:                4
# Atom types:                         C  H  O Sn
# Dielectric constant, electronic:   2.76040E+00
# Dielectric constant, ionic:        9.00053E-01
# Dielectric constant, total:        3.66046E+00
# Band gap at the GGA level (eV):    4.54010E+00
# Band gap at the HSE06 level (eV):  6.30630E+00
# Atomization energy (eV/atom):     -5.27212E+00
# Volume of the unit cell (A^3):     3.72493E+02
