# generated using pymatgen
data_SnH12C7O4
_symmetry_space_group_name_H-M   'P 1'
_cell_length_a   5.12059838
_cell_length_b   5.59120662
_cell_length_c   7.24852538
_cell_angle_alpha   79.99991002
_cell_angle_beta   83.07069022
_cell_angle_gamma   84.80040688
_symmetry_Int_Tables_number   1
_chemical_formula_structural   SnH12C7O4
_chemical_formula_sum   'Sn1 H12 C7 O4'
_cell_volume   202.366024159
_cell_formula_units_Z   1
loop_
 _symmetry_equiv_pos_site_id
 _symmetry_equiv_pos_as_xyz
  1  'x, y, z'
loop_
 _atom_site_type_symbol
 _atom_site_label
 _atom_site_symmetry_multiplicity
 _atom_site_fract_x
 _atom_site_fract_y
 _atom_site_fract_z
 _atom_site_occupancy
  C  C1  1  0.065908  0.915211  0.008299  1
  C  C2  1  0.003702  0.638392  0.502189  1
  C  C3  1  0.513373  0.098327  0.584640  1
  C  C4  1  0.527358  0.475309  0.932127  1
  C  C5  1  0.641934  0.199832  0.388725  1
  C  C6  1  0.487881  0.149112  0.230155  1
  C  C7  1  0.362219  0.379081  0.113433  1
  H  H8  1  0.166349  0.350037  0.082306  1
  H  H9  1  0.338044  0.525987  0.197354  1
  H  H10  1  0.613462  0.044096  0.136623  1
  H  H11  1  0.327453  0.037305  0.294699  1
  H  H12  1  0.642132  0.396346  0.386057  1
  H  H13  1  0.849459  0.133497  0.373623  1
  H  H14  1  0.277317  0.911158  0.013581  1
  H  H15  1  0.981203  0.101582  0.986673  1
  H  H16  1  0.968823  0.805946  0.131693  1
  H  H17  1  0.026954  0.441126  0.536396  1
  H  H18  1  0.815663  0.699290  0.447686  1
  H  H19  1  0.167227  0.707874  0.403481  1
  O  O20  1  0.651399  0.035249  0.724019  1
  O  O21  1  0.263142  0.086604  0.600874  1
  O  O22  1  0.775242  0.483901  0.943292  1
  O  O23  1  0.421064  0.551964  0.779794  1
  Sn  Sn24  1  0.018149  0.776655  0.758741  1
 
# Source:                            Baldwin_etal:Adv.Mater.27.346(2015).and.Macromolecules.48.2422(2015)            
# Class:                             organometallic_polymer_crystal                                                  
# Label:                             polyesters_inter                                                                
# Structure prediction method used:  minima-hopping                                                                  
# Number of atoms:                    24
# Number of atom types:                4
# Atom types:                         C  H  O Sn
# Dielectric constant, electronic:   2.97499E+00
# Dielectric constant, ionic:        3.15265E+00
# Dielectric constant, total:        6.12765E+00
# Band gap at the GGA level (eV):    4.01090E+00
# Band gap at the HSE06 level (eV):  5.60110E+00
# Atomization energy (eV/atom):     -5.40564E+00
# Volume of the unit cell (A^3):     2.02366E+02
