# generated using pymatgen
data_SnH16C9O4
_symmetry_space_group_name_H-M   'P 1'
_cell_length_a   4.50939000
_cell_length_b   6.66055893
_cell_length_c   8.51726646
_cell_angle_alpha   100.26505053
_cell_angle_beta   97.66013557
_cell_angle_gamma   102.56351841
_symmetry_Int_Tables_number   1
_chemical_formula_structural   SnH16C9O4
_chemical_formula_sum   'Sn1 H16 C9 O4'
_cell_volume   241.719794276
_cell_formula_units_Z   1
loop_
 _symmetry_equiv_pos_site_id
 _symmetry_equiv_pos_as_xyz
  1  'x, y, z'
loop_
 _atom_site_type_symbol
 _atom_site_label
 _atom_site_symmetry_multiplicity
 _atom_site_fract_x
 _atom_site_fract_y
 _atom_site_fract_z
 _atom_site_occupancy
  C  C1  1  0.411984  0.994308  0.443474  1
  C  C2  1  0.014944  0.329718  0.294532  1
  C  C3  1  0.572897  0.722830  0.135873  1
  C  C4  1  0.761228  0.577378  0.635340  1
  C  C5  1  0.798113  0.131515  0.872742  1
  C  C6  1  0.658352  0.302969  0.817519  1
  C  C7  1  0.885503  0.437421  0.735903  1
  C  C8  1  0.753606  0.846516  0.032370  1
  C  C9  1  0.577192  0.981399  0.947145  1
  H  H10  1  0.386933  0.881899  0.852779  1
  H  H11  1  0.471326  0.072110  0.034595  1
  H  H12  1  0.966434  0.944681  0.109950  1
  H  H13  1  0.828818  0.738054  0.943802  1
  H  H14  1  0.086594  0.533378  0.824414  1
  H  H15  1  0.980566  0.334255  0.651656  1
  H  H16  1  0.438392  0.232212  0.735303  1
  H  H17  1  0.605173  0.400812  0.922702  1
  H  H18  1  0.819213  0.312369  0.199566  1
  H  H19  1  0.867898  0.039382  0.770189  1
  H  H20  1  0.445705  0.045363  0.331428  1
  H  H21  1  0.257686  0.072925  0.503610  1
  H  H22  1  0.631952  0.017304  0.522700  1
  H  H23  1  0.197695  0.270224  0.245559  1
  H  H24  1  0.946939  0.252593  0.390830  1
  H  H25  1  0.011666  0.207916  0.960602  1
  O  O26  1  0.712973  0.685780  0.267572  1
  O  O27  1  0.279878  0.668213  0.103673  1
  O  O28  1  0.956103  0.724847  0.595920  1
  O  O29  1  0.470895  0.541862  0.588760  1
  Sn  Sn30  1  0.203179  0.661687  0.386382  1
 
# Source:                            Baldwin_etal:Adv.Mater.27.346(2015).and.Macromolecules.48.2422(2015)            
# Class:                             organometallic_polymer_crystal                                                  
# Label:                             polyesters_inter                                                                
# Structure prediction method used:  minima-hopping                                                                  
# Number of atoms:                    30
# Number of atom types:                4
# Atom types:                         C  H  O Sn
# Dielectric constant, electronic:   2.94409E+00
# Dielectric constant, ionic:        3.97150E+00
# Dielectric constant, total:        6.91560E+00
# Band gap at the GGA level (eV):    4.28350E+00
# Band gap at the HSE06 level (eV):  5.96270E+00
# Atomization energy (eV/atom):     -5.35854E+00
# Volume of the unit cell (A^3):     2.41720E+02
