# generated using pymatgen
data_SnH20C11O4
_symmetry_space_group_name_H-M   'P 1'
_cell_length_a   4.64938113
_cell_length_b   7.24116228
_cell_length_c   8.89740171
_cell_angle_alpha   73.67975041
_cell_angle_beta   87.27805396
_cell_angle_gamma   89.52068929
_symmetry_Int_Tables_number   1
_chemical_formula_structural   SnH20C11O4
_chemical_formula_sum   'Sn1 H20 C11 O4'
_cell_volume   287.149941056
_cell_formula_units_Z   1
loop_
 _symmetry_equiv_pos_site_id
 _symmetry_equiv_pos_as_xyz
  1  'x, y, z'
loop_
 _atom_site_type_symbol
 _atom_site_label
 _atom_site_symmetry_multiplicity
 _atom_site_fract_x
 _atom_site_fract_y
 _atom_site_fract_z
 _atom_site_occupancy
  C  C1  1  0.133121  0.394788  0.998942  1
  C  C2  1  0.987593  0.806296  0.260307  1
  C  C3  1  0.552053  0.964135  0.932831  1
  C  C4  1  0.430760  0.226587  0.321646  1
  C  C5  1  0.742452  0.486954  0.609288  1
  C  C6  1  0.617989  0.322440  0.554380  1
  C  C7  1  0.577438  0.380364  0.375790  1
  C  C8  1  0.645885  0.844702  0.608910  1
  C  C9  1  0.524212  0.649677  0.603185  1
  C  C10  1  0.852568  0.834400  0.740479  1
  C  C11  1  0.698633  0.788610  0.904423  1
  H  H12  1  0.971229  0.969565  0.719686  1
  H  H13  1  0.014648  0.724555  0.741139  1
  H  H14  1  0.858436  0.741235  0.992847  1
  H  H15  1  0.539123  0.674062  0.920337  1
  H  H16  1  0.362848  0.596520  0.698918  1
  H  H17  1  0.406098  0.676826  0.495583  1
  H  H18  1  0.759481  0.914295  0.497426  1
  H  H19  1  0.463634  0.938226  0.619160  1
  H  H20  1  0.438493  0.507137  0.342744  1
  H  H21  1  0.786628  0.415663  0.314148  1
  H  H22  1  0.767532  0.202458  0.581635  1
  H  H23  1  0.411239  0.273458  0.617602  1
  H  H24  1  0.111491  0.717328  0.200806  1
  H  H25  1  0.807671  0.425457  0.729452  1
  H  H26  1  0.949840  0.456435  0.931707  1
  H  H27  1  0.184832  0.475161  0.080817  1
  H  H28  1  0.318915  0.383690  0.922837  1
  H  H29  1  0.075461  0.800782  0.372232  1
  H  H30  1  0.761230  0.764837  0.275714  1
  H  H31  1  0.939124  0.540897  0.538595  1
  O  O32  1  0.706502  0.109609  0.938072  1
  O  O33  1  0.279077  0.963504  0.950448  1
  O  O34  1  0.563869  0.140676  0.228664  1
  O  O35  1  0.164941  0.190714  0.358354  1
  Sn  Sn36  1  0.017397  0.102940  0.122307  1
 
# Source:                            Baldwin_etal:Adv.Mater.27.346(2015).and.Macromolecules.48.2422(2015)            
# Class:                             organometallic_polymer_crystal                                                  
# Label:                             polyesters_inter                                                                
# Structure prediction method used:  minima-hopping                                                                  
# Number of atoms:                    36
# Number of atom types:                4
# Atom types:                         C  H  O Sn
# Dielectric constant, electronic:   2.87972E+00
# Dielectric constant, ionic:        2.13128E+00
# Dielectric constant, total:        5.01100E+00
# Band gap at the GGA level (eV):    4.11030E+00
# Band gap at the HSE06 level (eV):  5.76010E+00
# Atomization energy (eV/atom):     -5.31636E+00
# Volume of the unit cell (A^3):     2.87150E+02
