# generated using pymatgen
data_SnH22(C3O)4
_symmetry_space_group_name_H-M   'P 1'
_cell_length_a   4.95753646
_cell_length_b   7.38377518
_cell_length_c   9.40205187
_cell_angle_alpha   68.21606493
_cell_angle_beta   85.33153999
_cell_angle_gamma   78.84231496
_symmetry_Int_Tables_number   1
_chemical_formula_structural   SnH22(C3O)4
_chemical_formula_sum   'Sn1 H22 C12 O4'
_cell_volume   313.530309102
_cell_formula_units_Z   1
loop_
 _symmetry_equiv_pos_site_id
 _symmetry_equiv_pos_as_xyz
  1  'x, y, z'
loop_
 _atom_site_type_symbol
 _atom_site_label
 _atom_site_symmetry_multiplicity
 _atom_site_fract_x
 _atom_site_fract_y
 _atom_site_fract_z
 _atom_site_occupancy
  C  C1  1  0.393722  0.656593  0.009495  1
  C  C2  1  0.302400  0.044467  0.230901  1
  C  C3  1  0.883451  0.280151  0.924636  1
  C  C4  1  0.784118  0.426833  0.307594  1
  C  C5  1  0.345509  0.587683  0.614363  1
  C  C6  1  0.501200  0.448706  0.535693  1
  C  C7  1  0.583319  0.562723  0.368841  1
  C  C8  1  0.044106  0.969877  0.660878  1
  C  C9  1  0.895813  0.820346  0.634449  1
  C  C10  1  0.058555  0.690645  0.549282  1
  C  C11  1  0.905734  0.027235  0.794060  1
  C  C12  1  0.051734  0.169623  0.830293  1
  H  H13  1  0.900561  0.893239  0.896108  1
  H  H14  1  0.690531  0.093635  0.766636  1
  H  H15  1  0.106512  0.282733  0.724064  1
  H  H16  1  0.248231  0.094387  0.887943  1
  H  H17  1  0.942180  0.575896  0.557548  1
  H  H18  1  0.073164  0.777647  0.427244  1
  H  H19  1  0.833562  0.721252  0.746518  1
  H  H20  1  0.706247  0.904002  0.571909  1
  H  H21  1  0.040124  0.102643  0.556264  1
  H  H22  1  0.261679  0.909330  0.686660  1
  H  H23  1  0.398549  0.619754  0.299455  1
  H  H24  1  0.678232  0.687011  0.362096  1
  H  H25  1  0.687250  0.365772  0.599969  1
  H  H26  1  0.379652  0.339550  0.535332  1
  H  H27  1  0.433422  0.962898  0.167982  1
  H  H28  1  0.327593  0.503765  0.737095  1
  H  H29  1  0.242132  0.750980  0.053691  1
  H  H30  1  0.602578  0.667077  0.029459  1
  H  H31  1  0.365964  0.693691  0.887922  1
  H  H32  1  0.371301  0.994954  0.348550  1
  H  H33  1  0.086885  0.034060  0.228224  1
  H  H34  1  0.470736  0.698264  0.603649  1
  O  O35  1  0.987623  0.401959  0.962592  1
  O  O36  1  0.635970  0.250931  0.957925  1
  O  O37  1  0.034587  0.453845  0.287395  1
  O  O38  1  0.701524  0.286691  0.282299  1
  Sn  Sn39  1  0.341861  0.350756  0.123326  1
 
# Source:                            Baldwin_etal:Adv.Mater.27.346(2015).and.Macromolecules.48.2422(2015)            
# Class:                             organometallic_polymer_crystal                                                  
# Label:                             polyesters_inter                                                                
# Structure prediction method used:  minima-hopping                                                                  
# Number of atoms:                    39
# Number of atom types:                4
# Atom types:                         C  H  O Sn
# Dielectric constant, electronic:   2.79866E+00
# Dielectric constant, ionic:        1.67946E+00
# Dielectric constant, total:        4.47812E+00
# Band gap at the GGA level (eV):    4.22870E+00
# Band gap at the HSE06 level (eV):  5.81840E+00
# Atomization energy (eV/atom):     -5.30800E+00
# Volume of the unit cell (A^3):     3.13530E+02
