# generated using pymatgen
data_SnH28C15O4
_symmetry_space_group_name_H-M   'P 1'
_cell_length_a   4.82012292
_cell_length_b   7.73218565
_cell_length_c   10.98462896
_cell_angle_alpha   103.11702606
_cell_angle_beta   101.26575428
_cell_angle_gamma   102.33199551
_symmetry_Int_Tables_number   1
_chemical_formula_structural   SnH28C15O4
_chemical_formula_sum   'Sn1 H28 C15 O4'
_cell_volume   376.508205309
_cell_formula_units_Z   1
loop_
 _symmetry_equiv_pos_site_id
 _symmetry_equiv_pos_as_xyz
  1  'x, y, z'
loop_
 _atom_site_type_symbol
 _atom_site_label
 _atom_site_symmetry_multiplicity
 _atom_site_fract_x
 _atom_site_fract_y
 _atom_site_fract_z
 _atom_site_occupancy
  C  C1  1  0.054869  0.629864  0.008264  1
  C  C2  1  0.953463  0.531753  0.370078  1
  C  C3  1  0.359132  0.295521  0.107243  1
  C  C4  1  0.672906  0.878072  0.300242  1
  C  C5  1  0.749306  0.274173  0.603229  1
  C  C6  1  0.713742  0.079124  0.518482  1
  C  C7  1  0.652187  0.064637  0.372609  1
  C  C8  1  0.932027  0.780125  0.684478  1
  C  C9  1  0.606555  0.670569  0.628052  1
  C  C10  1  0.457641  0.322100  0.604747  1
  C  C11  1  0.980369  0.954511  0.794421  1
  C  C12  1  0.297085  0.080201  0.835553  1
  C  C13  1  0.499023  0.051915  0.951560  1
  C  C14  1  0.414878  0.106704  0.080335  1
  C  C15  1  0.498026  0.517522  0.691061  1
  H  H16  1  0.290149  0.526502  0.713751  1
  H  H17  1  0.652247  0.537973  0.783974  1
  H  H18  1  0.504023  0.907013  0.932259  1
  H  H19  1  0.722705  0.133787  0.965097  1
  H  H20  1  0.603322  0.113455  0.156687  1
  H  H21  1  0.223716  0.007911  0.087207  1
  H  H22  1  0.920459  0.915809  0.877398  1
  H  H23  1  0.295819  0.225748  0.857588  1
  H  H24  1  0.395231  0.056156  0.753553  1
  H  H25  1  0.060936  0.691913  0.718396  1
  H  H26  1  0.322571  0.221027  0.639042  1
  H  H27  1  0.336255  0.308298  0.505711  1
  H  H28  1  0.472277  0.768111  0.636254  1
  H  H29  1  0.567473  0.608560  0.524135  1
  H  H30  1  0.827923  0.031250  0.762679  1
  H  H31  1  0.020878  0.822168  0.608074  1
  H  H32  1  0.431408  0.078609  0.337334  1
  H  H33  1  0.814962  0.172082  0.355849  1
  H  H34  1  0.914672  0.037631  0.545914  1
  H  H35  1  0.535689  0.979475  0.534625  1
  H  H36  1  0.097657  0.445883  0.391415  1
  H  H37  1  0.864404  0.287723  0.703204  1
  H  H38  1  0.283380  0.698146  0.017804  1
  H  H39  1  0.991002  0.492923  0.939831  1
  H  H40  1  0.908419  0.711338  0.979771  1
  H  H41  1  0.022997  0.663309  0.443954  1
  H  H42  1  0.724897  0.462978  0.359790  1
  H  H43  1  0.890539  0.374913  0.570492  1
  O  O44  1  0.532086  0.428419  0.084112  1
  O  O45  1  0.134112  0.313748  0.149560  1
  O  O46  1  0.894061  0.870237  0.251781  1
  O  O47  1  0.480588  0.733820  0.298239  1
  Sn  Sn48  1  0.004122  0.587467  0.191205  1
 
# Source:                            Baldwin_etal:Adv.Mater.27.346(2015).and.Macromolecules.48.2422(2015)            
# Class:                             organometallic_polymer_crystal                                                  
# Label:                             polyesters_inter                                                                
# Structure prediction method used:  minima-hopping                                                                  
# Number of atoms:                    48
# Number of atom types:                4
# Atom types:                         C  H  O Sn
# Dielectric constant, electronic:   2.76267E+00
# Dielectric constant, ionic:        1.77747E+00
# Dielectric constant, total:        4.54014E+00
# Band gap at the GGA level (eV):    4.28940E+00
# Band gap at the HSE06 level (eV):  5.89740E+00
# Atomization energy (eV/atom):     -5.27202E+00
# Volume of the unit cell (A^3):     3.76508E+02
