# generated using pymatgen
data_SnH6(CO)4
_symmetry_space_group_name_H-M   'P 1'
_cell_length_a   5.95743466
_cell_length_b   5.96959134
_cell_length_c   5.97969412
_cell_angle_alpha   71.09353271
_cell_angle_beta   60.98512922
_cell_angle_gamma   60.76997396
_symmetry_Int_Tables_number   1
_chemical_formula_structural   SnH6(CO)4
_chemical_formula_sum   'Sn1 H6 C4 O4'
_cell_volume   161.226266392
_cell_formula_units_Z   1
loop_
 _symmetry_equiv_pos_site_id
 _symmetry_equiv_pos_as_xyz
  1  'x, y, z'
loop_
 _atom_site_type_symbol
 _atom_site_label
 _atom_site_symmetry_multiplicity
 _atom_site_fract_x
 _atom_site_fract_y
 _atom_site_fract_z
 _atom_site_occupancy
  C  C1  1  0.019729  0.428927  0.096267  1
  C  C2  1  0.908236  0.095619  0.759926  1
  C  C3  1  0.491896  0.031090  0.468957  1
  C  C4  1  0.493192  0.807115  0.691296  1
  H  H5  1  0.924622  0.554311  0.959951  1
  H  H6  1  0.930016  0.286117  0.206248  1
  H  H7  1  0.988561  0.543330  0.226564  1
  H  H8  1  0.007523  0.981191  0.602072  1
  H  H9  1  0.960010  0.263429  0.694237  1
  H  H10  1  0.966120  0.978074  0.920323  1
  O  O11  1  0.495742  0.992065  0.273168  1
  O  O12  1  0.481005  0.841568  0.898195  1
  O  O13  1  0.476079  0.239371  0.505176  1
  O  O14  1  0.495205  0.611839  0.652323  1
  Sn  Sn15  1  0.464015  0.231830  0.892315  1
 
# Source:                            Baldwin_etal:Adv.Mater.27.346(2015).and.Macromolecules.48.2422(2015)            
# Class:                             organometallic_polymer_crystal                                                  
# Label:                             polyesters_hybrid                                                               
# Structure prediction method used:  minima-hopping                                                                  
# Number of atoms:                    15
# Number of atom types:                4
# Atom types:                         C  H  O Sn
# Dielectric constant, electronic:   2.81370E+00
# Dielectric constant, ionic:        3.28407E+00
# Dielectric constant, total:        6.09778E+00
# Band gap at the GGA level (eV):    3.14280E+00
# Band gap at the HSE06 level (eV):  4.63230E+00
# Atomization energy (eV/atom):     -5.55553E+00
# Volume of the unit cell (A^3):     1.61226E+02
