# generated using pymatgen
data_SnH8C5O4
_symmetry_space_group_name_H-M   'P 1'
_cell_length_a   4.77015244
_cell_length_b   5.72292753
_cell_length_c   6.41427588
_cell_angle_alpha   106.93736323
_cell_angle_beta   91.67679972
_cell_angle_gamma   98.65461455
_symmetry_Int_Tables_number   1
_chemical_formula_structural   SnH8C5O4
_chemical_formula_sum   'Sn1 H8 C5 O4'
_cell_volume   165.106663073
_cell_formula_units_Z   1
loop_
 _symmetry_equiv_pos_site_id
 _symmetry_equiv_pos_as_xyz
  1  'x, y, z'
loop_
 _atom_site_type_symbol
 _atom_site_label
 _atom_site_symmetry_multiplicity
 _atom_site_fract_x
 _atom_site_fract_y
 _atom_site_fract_z
 _atom_site_occupancy
  C  C1  1  0.388624  0.704274  0.296454  1
  C  C2  1  0.214352  0.164696  0.903750  1
  C  C3  1  0.934606  0.551997  0.766096  1
  C  C4  1  0.843730  0.216896  0.391275  1
  C  C5  1  0.732831  0.340476  0.608124  1
  H  H6  1  0.688358  0.198952  0.692282  1
  H  H7  1  0.532206  0.401103  0.583032  1
  H  H8  1  0.201003  0.572878  0.301951  1
  H  H9  1  0.446242  0.833203  0.459496  1
  H  H10  1  0.562748  0.610343  0.231764  1
  H  H11  1  0.400438  0.307083  0.933766  1
  H  H12  1  0.028262  0.242735  0.965132  1
  H  H13  1  0.176117  0.058480  0.732183  1
  O  O14  1  0.195880  0.600412  0.736081  1
  O  O15  1  0.831350  0.677290  0.941231  1
  O  O16  1  0.700062  0.202488  0.216428  1
  O  O17  1  0.070940  0.121663  0.393850  1
  Sn  Sn18  1  0.265615  0.919557  0.093070  1
 
# Source:                            Baldwin_etal:Adv.Mater.27.346(2015).and.Macromolecules.48.2422(2015)            
# Class:                             organometallic_polymer_crystal                                                  
# Label:                             polyesters_hybrid                                                               
# Structure prediction method used:  minima-hopping                                                                  
# Number of atoms:                    18
# Number of atom types:                4
# Atom types:                         C  H  O Sn
# Dielectric constant, electronic:   3.01811E+00
# Dielectric constant, ionic:        3.03866E+00
# Dielectric constant, total:        6.05677E+00
# Band gap at the GGA level (eV):    4.13340E+00
# Band gap at the HSE06 level (eV):  5.69740E+00
# Atomization energy (eV/atom):     -5.49017E+00
# Volume of the unit cell (A^3):     1.65107E+02
