# generated using pymatgen
data_SnH12C7O4
_symmetry_space_group_name_H-M   'P 1'
_cell_length_a   5.14015865
_cell_length_b   5.86470059
_cell_length_c   6.87418964
_cell_angle_alpha   95.87143913
_cell_angle_beta   90.00352142
_cell_angle_gamma   97.32630422
_symmetry_Int_Tables_number   1
_chemical_formula_structural   SnH12C7O4
_chemical_formula_sum   'Sn1 H12 C7 O4'
_cell_volume   204.437748597
_cell_formula_units_Z   1
loop_
 _symmetry_equiv_pos_site_id
 _symmetry_equiv_pos_as_xyz
  1  'x, y, z'
loop_
 _atom_site_type_symbol
 _atom_site_label
 _atom_site_symmetry_multiplicity
 _atom_site_fract_x
 _atom_site_fract_y
 _atom_site_fract_z
 _atom_site_occupancy
  C  C1  1  0.977855  0.966132  0.826461  1
  C  C2  1  0.140875  0.368253  0.471845  1
  C  C3  1  0.724289  0.422437  0.911295  1
  C  C4  1  0.568556  0.841841  0.399779  1
  C  C5  1  0.521868  0.272391  0.016786  1
  C  C6  1  0.623464  0.167462  0.191902  1
  C  C7  1  0.466777  0.928951  0.218240  1
  H  H8  1  0.257459  0.941274  0.235562  1
  H  H9  1  0.493016  0.807803  0.089460  1
  H  H10  1  0.828525  0.144423  0.170668  1
  H  H11  1  0.614424  0.284671  0.324930  1
  H  H12  1  0.357618  0.369946  0.053744  1
  H  H13  1  0.443914  0.135704  0.904427  1
  H  H14  1  0.084198  0.116819  0.771579  1
  H  H15  1  0.768017  0.973154  0.826321  1
  H  H16  1  0.047815  0.938785  0.969971  1
  H  H17  1  0.159664  0.411000  0.321441  1
  H  H18  1  0.325830  0.342701  0.536700  1
  H  H19  1  0.993317  0.219949  0.480807  1
  O  O20  1  0.641011  0.481191  0.745561  1
  O  O21  1  0.959507  0.480317  0.967819  1
  O  O22  1  0.441887  0.857721  0.557469  1
  O  O23  1  0.796060  0.765139  0.384260  1
  Sn  Sn24  1  0.006456  0.662836  0.633831  1
 
# Source:                            Baldwin_etal:Adv.Mater.27.346(2015).and.Macromolecules.48.2422(2015)            
# Class:                             organometallic_polymer_crystal                                                  
# Label:                             polyesters_hybrid                                                               
# Structure prediction method used:  minima-hopping                                                                  
# Number of atoms:                    24
# Number of atom types:                4
# Atom types:                         C  H  O Sn
# Dielectric constant, electronic:   2.92470E+00
# Dielectric constant, ionic:        2.22255E+00
# Dielectric constant, total:        5.14726E+00
# Band gap at the GGA level (eV):    4.41850E+00
# Band gap at the HSE06 level (eV):  6.06840E+00
# Atomization energy (eV/atom):     -5.40713E+00
# Volume of the unit cell (A^3):     2.04438E+02
