# generated using pymatgen
data_SnH14(C2O)4
_symmetry_space_group_name_H-M   'P 1'
_cell_length_a   4.61222476
_cell_length_b   5.85582324
_cell_length_c   8.33786536
_cell_angle_alpha   86.20723052
_cell_angle_beta   82.07796480
_cell_angle_gamma   76.81000715
_symmetry_Int_Tables_number   1
_chemical_formula_structural   SnH14(C2O)4
_chemical_formula_sum   'Sn1 H14 C8 O4'
_cell_volume   217.018285181
_cell_formula_units_Z   1
loop_
 _symmetry_equiv_pos_site_id
 _symmetry_equiv_pos_as_xyz
  1  'x, y, z'
loop_
 _atom_site_type_symbol
 _atom_site_label
 _atom_site_symmetry_multiplicity
 _atom_site_fract_x
 _atom_site_fract_y
 _atom_site_fract_z
 _atom_site_occupancy
  C  C1  1  0.729116  0.033524  0.608544  1
  C  C2  1  0.920894  0.386326  0.860028  1
  C  C3  1  0.365184  0.875681  0.995008  1
  C  C4  1  0.280724  0.533093  0.465072  1
  C  C5  1  0.301092  0.078325  0.263152  1
  C  C6  1  0.345082  0.322893  0.200606  1
  C  C7  1  0.493064  0.442044  0.315738  1
  C  C8  1  0.155062  0.959659  0.146811  1
  H  H9  1  0.952555  0.074635  0.109860  1
  H  H10  1  0.078651  0.806981  0.205334  1
  H  H11  1  0.690527  0.324150  0.356126  1
  H  H12  1  0.577545  0.590117  0.255526  1
  H  H13  1  0.481701  0.307817  0.082411  1
  H  H14  1  0.126786  0.435479  0.182554  1
  H  H15  1  0.117652  0.258425  0.810391  1
  H  H16  1  0.518576  0.966029  0.282834  1
  H  H17  1  0.872792  0.158544  0.594812  1
  H  H18  1  0.706209  0.969650  0.492665  1
  H  H19  1  0.509219  0.109364  0.671943  1
  H  H20  1  0.924612  0.410007  0.987511  1
  H  H21  1  0.716342  0.335614  0.840590  1
  H  H22  1  0.162563  0.093133  0.380501  1
  O  O23  1  0.641931  0.878469  0.988636  1
  O  O24  1  0.274105  0.799090  0.873479  1
  O  O25  1  0.009901  0.511358  0.482745  1
  O  O26  1  0.371287  0.637610  0.575217  1
  Sn  Sn27  1  0.922739  0.721734  0.741585  1
 
# Source:                            Baldwin_etal:Adv.Mater.27.346(2015).and.Macromolecules.48.2422(2015)            
# Class:                             organometallic_polymer_crystal                                                  
# Label:                             polyesters_hybrid                                                               
# Structure prediction method used:  minima-hopping                                                                  
# Number of atoms:                    27
# Number of atom types:                4
# Atom types:                         C  H  O Sn
# Dielectric constant, electronic:   2.96559E+00
# Dielectric constant, ionic:        1.84264E+00
# Dielectric constant, total:        4.80823E+00
# Band gap at the GGA level (eV):    4.53170E+00
# Band gap at the HSE06 level (eV):  6.28170E+00
# Atomization energy (eV/atom):     -5.38081E+00
# Volume of the unit cell (A^3):     2.17018E+02
