# generated using pymatgen
data_SnH24C13O4
_symmetry_space_group_name_H-M   'P 1'
_cell_length_a   5.01895657
_cell_length_b   6.80985592
_cell_length_c   10.31235806
_cell_angle_alpha   74.73401691
_cell_angle_beta   77.70337097
_cell_angle_gamma   87.73299075
_symmetry_Int_Tables_number   1
_chemical_formula_structural   SnH24C13O4
_chemical_formula_sum   'Sn1 H24 C13 O4'
_cell_volume   332.170891248
_cell_formula_units_Z   1
loop_
 _symmetry_equiv_pos_site_id
 _symmetry_equiv_pos_as_xyz
  1  'x, y, z'
loop_
 _atom_site_type_symbol
 _atom_site_label
 _atom_site_symmetry_multiplicity
 _atom_site_fract_x
 _atom_site_fract_y
 _atom_site_fract_z
 _atom_site_occupancy
  C  C1  1  0.053058  0.826618  0.770267  1
  C  C2  1  0.691390  0.465947  0.169012  1
  C  C3  1  0.429242  0.413490  0.893663  1
  C  C4  1  0.068372  0.913978  0.116345  1
  C  C5  1  0.401755  0.928990  0.414051  1
  C  C6  1  0.187466  0.865979  0.346142  1
  C  C7  1  0.176680  0.019268  0.206188  1
  C  C8  1  0.574984  0.194462  0.509932  1
  C  C9  1  0.345356  0.132474  0.450912  1
  C  C10  1  0.532902  0.403949  0.539981  1
  C  C11  1  0.765068  0.473332  0.594518  1
  C  C12  1  0.827723  0.321449  0.723568  1
  C  C13  1  0.581831  0.243498  0.842279  1
  H  H14  1  0.926434  0.189936  0.694587  1
  H  H15  1  0.975630  0.389523  0.762977  1
  H  H16  1  0.655404  0.143421  0.929172  1
  H  H17  1  0.437234  0.152465  0.815566  1
  H  H18  1  0.339599  0.402437  0.613407  1
  H  H19  1  0.716345  0.621686  0.615774  1
  H  H20  1  0.951321  0.496465  0.513841  1
  H  H21  1  0.591969  0.076351  0.603610  1
  H  H22  1  0.152259  0.120129  0.525768  1
  H  H23  1  0.318922  0.252567  0.360341  1
  H  H24  1  0.510886  0.516235  0.445177  1
  H  H25  1  0.770042  0.195770  0.437236  1
  H  H26  1  0.052185  0.150079  0.219471  1
  H  H27  1  0.384394  0.071831  0.154098  1
  H  H28  1  0.237563  0.715727  0.328758  1
  H  H29  1  0.985920  0.851792  0.414596  1
  H  H30  1  0.802556  0.464587  0.249364  1
  H  H31  1  0.414628  0.811012  0.507885  1
  H  H32  1  0.155217  0.720450  0.714003  1
  H  H33  1  0.872089  0.885136  0.731983  1
  H  H34  1  0.193925  0.946671  0.765755  1
  H  H35  1  0.492722  0.534653  0.188242  1
  H  H36  1  0.676793  0.313403  0.155807  1
  H  H37  1  0.600979  0.936772  0.343925  1
  O  O38  1  0.550993  0.579028  0.880997  1
  O  O39  1  0.171039  0.382596  0.949116  1
  O  O40  1  0.832113  0.943999  0.088861  1
  O  O41  1  0.223633  0.776916  0.071958  1
  Sn  Sn42  1  0.926516  0.650890  0.980315  1
 
# Source:                            Baldwin_etal:Adv.Mater.27.346(2015).and.Macromolecules.48.2422(2015)            
# Class:                             organometallic_polymer_crystal                                                  
# Label:                             polyesters_hybrid                                                               
# Structure prediction method used:  minima-hopping                                                                  
# Number of atoms:                    42
# Number of atom types:                4
# Atom types:                         C  H  O Sn
# Dielectric constant, electronic:   2.79222E+00
# Dielectric constant, ionic:        1.42551E+00
# Dielectric constant, total:        4.21773E+00
# Band gap at the GGA level (eV):    4.46120E+00
# Band gap at the HSE06 level (eV):  6.10790E+00
# Atomization energy (eV/atom):     -5.29687E+00
# Volume of the unit cell (A^3):     3.32171E+02
