# generated using pymatgen
data_SnH8C5O6
_symmetry_space_group_name_H-M   'P 1'
_cell_length_a   4.68193970
_cell_length_b   5.51962151
_cell_length_c   6.74226337
_cell_angle_alpha   99.44502533
_cell_angle_beta   93.17444527
_cell_angle_gamma   82.31115532
_symmetry_Int_Tables_number   1
_chemical_formula_structural   SnH8C5O6
_chemical_formula_sum   'Sn1 H8 C5 O6'
_cell_volume   170.230282676
_cell_formula_units_Z   1
loop_
 _symmetry_equiv_pos_site_id
 _symmetry_equiv_pos_as_xyz
  1  'x, y, z'
loop_
 _atom_site_type_symbol
 _atom_site_label
 _atom_site_symmetry_multiplicity
 _atom_site_fract_x
 _atom_site_fract_y
 _atom_site_fract_z
 _atom_site_occupancy
  C  C1  1  0.552163  0.459545  0.903019  1
  C  C2  1  0.683672  0.847108  0.378682  1
  C  C3  1  0.449948  0.362787  0.077614  1
  C  C4  1  0.631881  0.112424  0.097333  1
  C  C5  1  0.487667  0.997938  0.250587  1
  H  H6  1  0.365886  0.140930  0.355776  1
  H  H7  1  0.324461  0.884523  0.177889  1
  H  H8  1  0.640652  0.993011  0.952127  1
  H  H9  1  0.851489  0.142624  0.145720  1
  H  H10  1  0.475141  0.488875  0.217667  1
  H  H11  1  0.222669  0.339979  0.052189  1
  H  H12  1  0.294399  0.940741  0.721708  1
  H  H13  1  0.986633  0.160268  0.591254  1
  O  O14  1  0.104544  0.940323  0.776991  1
  O  O15  1  0.937627  0.276725  0.494001  1
  O  O16  1  0.409176  0.439796  0.734734  1
  O  O17  1  0.798831  0.543247  0.920139  1
  O  O18  1  0.580643  0.812046  0.547509  1
  O  O19  1  0.940778  0.748997  0.339564  1
  Sn  Sn20  1  0.980429  0.609596  0.649372  1
 
# Source:                            Huan_etal:SciDat(submitted)                                                     
# Class:                             organometallic_polymer_crystal                                                  
# Label:                             polyesters_intra                                                                
# Structure prediction method used:  minima-hopping                                                                  
# Number of atoms:                    20
# Number of atom types:                4
# Atom types:                         C  H  O Sn
# Dielectric constant, electronic:   3.02411E+00
# Dielectric constant, ionic:        2.52492E+00
# Dielectric constant, total:        5.54903E+00
# Band gap at the GGA level (eV):    3.70760E+00
# Band gap at the HSE06 level (eV):  5.30100E+00
# Atomization energy (eV/atom):     -5.61723E+00
# Volume of the unit cell (A^3):     1.70230E+02
