# generated using pymatgen
data_SnH12C7O6
_symmetry_space_group_name_H-M   'P 1'
_cell_length_a   4.54338692
_cell_length_b   5.35788297
_cell_length_c   9.29469481
_cell_angle_alpha   100.48441970
_cell_angle_beta   95.57683018
_cell_angle_gamma   107.43889355
_symmetry_Int_Tables_number   1
_chemical_formula_structural   SnH12C7O6
_chemical_formula_sum   'Sn1 H12 C7 O6'
_cell_volume   209.462548082
_cell_formula_units_Z   1
loop_
 _symmetry_equiv_pos_site_id
 _symmetry_equiv_pos_as_xyz
  1  'x, y, z'
loop_
 _atom_site_type_symbol
 _atom_site_label
 _atom_site_symmetry_multiplicity
 _atom_site_fract_x
 _atom_site_fract_y
 _atom_site_fract_z
 _atom_site_occupancy
  C  C1  1  0.638237  0.320832  0.852475  1
  C  C2  1  0.501482  0.411709  0.407122  1
  C  C3  1  0.693408  0.863373  0.126483  1
  C  C4  1  0.491473  0.695058  0.218505  1
  C  C5  1  0.677731  0.553865  0.300930  1
  C  C6  1  0.746682  0.153656  0.945736  1
  C  C7  1  0.511959  0.981655  0.024569  1
  H  H8  1  0.389309  0.099228  0.088571  1
  H  H9  1  0.332885  0.822138  0.943462  1
  H  H10  1  0.841972  0.023834  0.872473  1
  H  H11  1  0.950561  0.290308  0.024529  1
  H  H12  1  0.747829  0.410516  0.224618  1
  H  H13  1  0.894460  0.698772  0.365314  1
  H  H14  1  0.406925  0.823259  0.298960  1
  H  H15  1  0.284653  0.546866  0.146971  1
  H  H16  1  0.883759  0.025135  0.201918  1
  H  H17  1  0.048574  0.895098  0.622236  1
  H  H18  1  0.522931  0.820485  0.630220  1
  H  H19  1  0.807392  0.742592  0.058361  1
  O  O20  1  0.888161  0.973467  0.587274  1
  O  O21  1  0.322175  0.765451  0.669076  1
  O  O22  1  0.842282  0.488208  0.798390  1
  O  O23  1  0.349523  0.299003  0.829439  1
  O  O24  1  0.634966  0.344699  0.515674  1
  O  O25  1  0.206012  0.369588  0.397749  1
  Sn  Sn26  1  0.099887  0.370692  0.630208  1
 
# Source:                            Huan_etal:SciDat(submitted)                                                     
# Class:                             organometallic_polymer_crystal                                                  
# Label:                             polyesters_intra                                                                
# Structure prediction method used:  minima-hopping                                                                  
# Number of atoms:                    26
# Number of atom types:                4
# Atom types:                         C  H  O Sn
# Dielectric constant, electronic:   3.00961E+00
# Dielectric constant, ionic:        3.46998E+00
# Dielectric constant, total:        6.47959E+00
# Band gap at the GGA level (eV):    3.40430E+00
# Band gap at the HSE06 level (eV):  5.16480E+00
# Atomization energy (eV/atom):     -5.51803E+00
# Volume of the unit cell (A^3):     2.09463E+02
