# generated using pymatgen
data_SnH14(C4O3)2
_symmetry_space_group_name_H-M   'P 1'
_cell_length_a   5.06039793
_cell_length_b   5.53451347
_cell_length_c   8.78100360
_cell_angle_alpha   106.44977428
_cell_angle_beta   91.52517289
_cell_angle_gamma   93.56845211
_symmetry_Int_Tables_number   1
_chemical_formula_structural   SnH14(C4O3)2
_chemical_formula_sum   'Sn1 H14 C8 O6'
_cell_volume   235.153048099
_cell_formula_units_Z   1
loop_
 _symmetry_equiv_pos_site_id
 _symmetry_equiv_pos_as_xyz
  1  'x, y, z'
loop_
 _atom_site_type_symbol
 _atom_site_label
 _atom_site_symmetry_multiplicity
 _atom_site_fract_x
 _atom_site_fract_y
 _atom_site_fract_z
 _atom_site_occupancy
  C  C1  1  0.442017  0.745333  0.888595  1
  C  C2  1  0.603691  0.976647  0.541457  1
  C  C3  1  0.792771  0.482636  0.195418  1
  C  C4  1  0.874752  0.743739  0.310928  1
  C  C5  1  0.777373  0.765813  0.479978  1
  C  C6  1  0.578469  0.981879  0.994637  1
  C  C7  1  0.402085  0.137073  0.120704  1
  C  C8  1  0.489497  0.421940  0.173797  1
  H  H9  1  0.408292  0.510586  0.087646  1
  H  H10  1  0.394188  0.503519  0.285027  1
  H  H11  1  0.198117  0.110898  0.071917  1
  H  H12  1  0.403721  0.064961  0.224669  1
  H  H13  1  0.763769  0.937086  0.043448  1
  H  H14  1  0.641581  0.085887  0.911205  1
  H  H15  1  0.667675  0.593340  0.485157  1
  H  H16  1  0.943962  0.796605  0.567104  1
  H  H17  1  0.090227  0.779075  0.315969  1
  H  H18  1  0.793508  0.890738  0.266807  1
  H  H19  1  0.879115  0.472484  0.081095  1
  H  H20  1  0.890501  0.357739  0.846740  1
  H  H21  1  0.944834  0.308753  0.464133  1
  H  H22  1  0.884507  0.339077  0.238370  1
  O  O23  1  0.990631  0.208070  0.807403  1
  O  O24  1  0.136076  0.357839  0.470551  1
  O  O25  1  0.588026  0.557615  0.817822  1
  O  O26  1  0.195837  0.717265  0.854592  1
  O  O27  1  0.632679  0.188597  0.511292  1
  O  O28  1  0.412465  0.947060  0.632868  1
  Sn  Sn29  1  0.267795  0.320325  0.677229  1
 
# Source:                            Huan_etal:SciDat(submitted)                                                     
# Class:                             organometallic_polymer_crystal                                                  
# Label:                             polyesters_intra                                                                
# Structure prediction method used:  minima-hopping                                                                  
# Number of atoms:                    29
# Number of atom types:                4
# Atom types:                         C  H  O Sn
# Dielectric constant, electronic:   2.88919E+00
# Dielectric constant, ionic:        1.59652E+00
# Dielectric constant, total:        4.48571E+00
# Band gap at the GGA level (eV):    3.64160E+00
# Band gap at the HSE06 level (eV):  5.43830E+00
# Atomization energy (eV/atom):     -5.45798E+00
# Volume of the unit cell (A^3):     2.35153E+02
