# generated using pymatgen
data_SnH18(C5O3)2
_symmetry_space_group_name_H-M   'P 1'
_cell_length_a   4.74931409
_cell_length_b   6.17486983
_cell_length_c   9.80743387
_cell_angle_alpha   74.14489740
_cell_angle_beta   81.80766965
_cell_angle_gamma   88.11506847
_symmetry_Int_Tables_number   1
_chemical_formula_structural   SnH18(C5O3)2
_chemical_formula_sum   'Sn1 H18 C10 O6'
_cell_volume   273.84562989
_cell_formula_units_Z   1
loop_
 _symmetry_equiv_pos_site_id
 _symmetry_equiv_pos_as_xyz
  1  'x, y, z'
loop_
 _atom_site_type_symbol
 _atom_site_label
 _atom_site_symmetry_multiplicity
 _atom_site_fract_x
 _atom_site_fract_y
 _atom_site_fract_z
 _atom_site_occupancy
  C  C1  1  0.116945  0.909877  0.002516  1
  C  C2  1  0.314698  0.209060  0.257096  1
  C  C3  1  0.068530  0.741338  0.585948  1
  C  C4  1  0.053665  0.984227  0.492461  1
  C  C5  1  0.157181  0.995376  0.333285  1
  C  C6  1  0.357645  0.228630  0.723969  1
  C  C7  1  0.432547  0.414678  0.583432  1
  C  C8  1  0.378843  0.658485  0.594198  1
  C  C9  1  0.039585  0.208958  0.785259  1
  C  C10  1  0.991737  0.137800  0.951080  1
  H  H11  1  0.929364  0.090004  0.746269  1
  H  H12  1  0.934778  0.369935  0.751724  1
  H  H13  1  0.764980  0.129751  0.990062  1
  H  H14  1  0.094783  0.259981  0.990113  1
  H  H15  1  0.442994  0.677413  0.693026  1
  H  H16  1  0.516839  0.768509  0.505437  1
  H  H17  1  0.657996  0.396793  0.544897  1
  H  H18  1  0.317387  0.391532  0.499200  1
  H  H19  1  0.474168  0.264203  0.803470  1
  H  H20  1  0.435006  0.065386  0.709466  1
  H  H21  1  0.301969  0.857717  0.326105  1
  H  H22  1  0.973614  0.983601  0.280386  1
  H  H23  1  0.837674  0.051584  0.502943  1
  H  H24  1  0.189413  0.088903  0.528962  1
  H  H25  1  0.958526  0.732821  0.693564  1
  H  H26  1  0.709950  0.584578  0.857515  1
  H  H27  1  0.856079  0.564831  0.305327  1
  H  H28  1  0.951965  0.632054  0.542351  1
  O  O29  1  0.546006  0.514350  0.925081  1
  O  O30  1  0.701532  0.669268  0.276961  1
  O  O31  1  0.996418  0.734934  0.989692  1
  O  O32  1  0.357321  0.898938  0.051761  1
  O  O33  1  0.181316  0.400553  0.225550  1
  O  O34  1  0.585728  0.213628  0.221206  1
  Sn  Sn35  1  0.580891  0.588162  0.109030  1
 
# Source:                            Huan_etal:SciDat(submitted)                                                     
# Class:                             organometallic_polymer_crystal                                                  
# Label:                             polyesters_intra                                                                
# Structure prediction method used:  minima-hopping                                                                  
# Number of atoms:                    35
# Number of atom types:                4
# Atom types:                         C  H  O Sn
# Dielectric constant, electronic:   2.88352E+00
# Dielectric constant, ionic:        1.66187E+00
# Dielectric constant, total:        4.54539E+00
# Band gap at the GGA level (eV):    3.84320E+00
# Band gap at the HSE06 level (eV):  5.62490E+00
# Atomization energy (eV/atom):     -5.40483E+00
# Volume of the unit cell (A^3):     2.73846E+02
