# generated using pymatgen
data_SnH2(CO3)2
_symmetry_space_group_name_H-M   'P 1'
_cell_length_a   4.89879837
_cell_length_b   5.05555256
_cell_length_c   5.19530636
_cell_angle_alpha   64.91108514
_cell_angle_beta   85.96016799
_cell_angle_gamma   63.08589474
_symmetry_Int_Tables_number   1
_chemical_formula_structural   SnH2(CO3)2
_chemical_formula_sum   'Sn1 H2 C2 O6'
_cell_volume   102.723870623
_cell_formula_units_Z   1
loop_
 _symmetry_equiv_pos_site_id
 _symmetry_equiv_pos_as_xyz
  1  'x, y, z'
loop_
 _atom_site_type_symbol
 _atom_site_label
 _atom_site_symmetry_multiplicity
 _atom_site_fract_x
 _atom_site_fract_y
 _atom_site_fract_z
 _atom_site_occupancy
  C  C1  1  0.527672  0.560216  0.819986  1
  C  C2  1  0.341765  0.389920  0.802648  1
  H  H3  1  0.806748  0.011430  0.555896  1
  H  H4  1  0.062658  0.938757  0.066900  1
  O  O5  1  0.003996  0.018117  0.542200  1
  O  O6  1  0.865489  0.931910  0.080304  1
  O  O7  1  0.526082  0.599054  0.047485  1
  O  O8  1  0.667840  0.656452  0.613379  1
  O  O9  1  0.201568  0.293698  0.009218  1
  O  O10  1  0.343394  0.351076  0.575142  1
  Sn  Sn11  1  0.934749  0.475024  0.311351  1
 
# Source:                            Huan_etal:SciDat(submitted)                                                     
# Class:                             organometallic_polymer_crystal                                                  
# Label:                             polyesters_inter                                                                
# Structure prediction method used:  minima-hopping                                                                  
# Number of atoms:                    11
# Number of atom types:                4
# Atom types:                         C  H  O Sn
# Dielectric constant, electronic:   3.59118E+00
# Dielectric constant, ionic:        5.06277E+00
# Dielectric constant, total:        8.65395E+00
# Band gap at the GGA level (eV):    1.62100E+00
# Band gap at the HSE06 level (eV):  3.41340E+00
# Atomization energy (eV/atom):     -5.96801E+00
# Volume of the unit cell (A^3):     1.02724E+02
