# generated using pymatgen
data_SnH6(C2O3)2
_symmetry_space_group_name_H-M   'P 1'
_cell_length_a   4.84968797
_cell_length_b   5.23161475
_cell_length_c   6.21098579
_cell_angle_alpha   82.29089517
_cell_angle_beta   83.94482993
_cell_angle_gamma   79.06364206
_symmetry_Int_Tables_number   1
_chemical_formula_structural   SnH6(C2O3)2
_chemical_formula_sum   'Sn1 H6 C4 O6'
_cell_volume   152.803298166
_cell_formula_units_Z   1
loop_
 _symmetry_equiv_pos_site_id
 _symmetry_equiv_pos_as_xyz
  1  'x, y, z'
loop_
 _atom_site_type_symbol
 _atom_site_label
 _atom_site_symmetry_multiplicity
 _atom_site_fract_x
 _atom_site_fract_y
 _atom_site_fract_z
 _atom_site_occupancy
  C  C1  1  0.465816  0.149767  0.486686  1
  C  C2  1  0.560217  0.492516  0.898754  1
  C  C3  1  0.597636  0.298571  0.292397  1
  C  C4  1  0.428321  0.343821  0.093079  1
  H  H5  1  0.405693  0.156192  0.043019  1
  H  H6  1  0.216984  0.453546  0.127486  1
  H  H7  1  0.620155  0.486209  0.342502  1
  H  H8  1  0.809027  0.188955  0.257981  1
  H  H9  1  0.012134  0.155233  0.940240  1
  H  H10  1  0.013824  0.487007  0.445278  1
  O  O11  1  0.040544  0.964180  0.969995  1
  O  O12  1  0.985419  0.678045  0.415473  1
  O  O13  1  0.603005  0.060374  0.653778  1
  O  O14  1  0.205693  0.125618  0.485748  1
  O  O15  1  0.820377  0.516573  0.899680  1
  O  O16  1  0.423045  0.581934  0.731652  1
  Sn  Sn17  1  0.012988  0.821126  0.692702  1
 
# Source:                            Huan_etal:SciDat(submitted)                                                     
# Class:                             organometallic_polymer_crystal                                                  
# Label:                             polyesters_inter                                                                
# Structure prediction method used:  minima-hopping                                                                  
# Number of atoms:                    17
# Number of atom types:                4
# Atom types:                         C  H  O Sn
# Dielectric constant, electronic:   2.99635E+00
# Dielectric constant, ionic:        3.29522E+00
# Dielectric constant, total:        6.29157E+00
# Band gap at the GGA level (eV):    3.54170E+00
# Band gap at the HSE06 level (eV):  5.42960E+00
# Atomization energy (eV/atom):     -5.71032E+00
# Volume of the unit cell (A^3):     1.52803E+02
