# generated using pymatgen
data_SnH10(CO)6
_symmetry_space_group_name_H-M   'P 1'
_cell_length_a   4.67632313
_cell_length_b   6.49595118
_cell_length_c   6.86551391
_cell_angle_alpha   98.98472913
_cell_angle_beta   100.76460809
_cell_angle_gamma   100.00004163
_symmetry_Int_Tables_number   1
_chemical_formula_structural   SnH10(CO)6
_chemical_formula_sum   'Sn1 H10 C6 O6'
_cell_volume   197.901050661
_cell_formula_units_Z   1
loop_
 _symmetry_equiv_pos_site_id
 _symmetry_equiv_pos_as_xyz
  1  'x, y, z'
loop_
 _atom_site_type_symbol
 _atom_site_label
 _atom_site_symmetry_multiplicity
 _atom_site_fract_x
 _atom_site_fract_y
 _atom_site_fract_z
 _atom_site_occupancy
  C  C1  1  0.642392  0.830213  0.024740  1
  C  C2  1  0.706070  0.565877  0.516102  1
  C  C3  1  0.598238  0.127055  0.832516  1
  C  C4  1  0.750228  0.269102  0.708399  1
  C  C5  1  0.547939  0.406736  0.615889  1
  C  C6  1  0.800532  0.989414  0.925014  1
  H  H7  1  0.983384  0.090818  0.043681  1
  H  H8  1  0.905359  0.906975  0.815845  1
  H  H9  1  0.365039  0.305320  0.497264  1
  H  H10  1  0.443178  0.489238  0.725060  1
  H  H11  1  0.956481  0.369471  0.803072  1
  H  H12  1  0.811564  0.171479  0.584673  1
  H  H13  1  0.396440  0.434238  0.087293  1
  H  H14  1  0.536899  0.224666  0.956245  1
  H  H15  1  0.952125  0.961827  0.453559  1
  H  H16  1  0.391980  0.026699  0.737834  1
  O  O17  1  0.127262  0.986909  0.394943  1
  O  O18  1  0.221307  0.409136  0.145917  1
  O  O19  1  0.398684  0.862454  0.071470  1
  O  O20  1  0.746905  0.664378  0.062536  1
  O  O21  1  0.949700  0.533543  0.469295  1
  O  O22  1  0.601590  0.731728  0.478326  1
  Sn  Sn23  1  0.174261  0.698019  0.270413  1
 
# Source:                            Huan_etal:SciDat(submitted)                                                     
# Class:                             organometallic_polymer_crystal                                                  
# Label:                             polyesters_inter                                                                
# Structure prediction method used:  minima-hopping                                                                  
# Number of atoms:                    23
# Number of atom types:                4
# Atom types:                         C  H  O Sn
# Dielectric constant, electronic:   2.89342E+00
# Dielectric constant, ionic:        2.14554E+00
# Dielectric constant, total:        5.03897E+00
# Band gap at the GGA level (eV):    3.45870E+00
# Band gap at the HSE06 level (eV):  5.20940E+00
# Atomization energy (eV/atom):     -5.56277E+00
# Volume of the unit cell (A^3):     1.97901E+02
