# generated using pymatgen
data_SnH18(C5O3)2
_symmetry_space_group_name_H-M   'P 1'
_cell_length_a   4.73174566
_cell_length_b   7.56352810
_cell_length_c   8.65437292
_cell_angle_alpha   67.68732120
_cell_angle_beta   78.83874372
_cell_angle_gamma   73.36164910
_symmetry_Int_Tables_number   1
_chemical_formula_structural   SnH18(C5O3)2
_chemical_formula_sum   'Sn1 H18 C10 O6'
_cell_volume   273.279824446
_cell_formula_units_Z   1
loop_
 _symmetry_equiv_pos_site_id
 _symmetry_equiv_pos_as_xyz
  1  'x, y, z'
loop_
 _atom_site_type_symbol
 _atom_site_label
 _atom_site_symmetry_multiplicity
 _atom_site_fract_x
 _atom_site_fract_y
 _atom_site_fract_z
 _atom_site_occupancy
  C  C1  1  0.073549  0.823532  0.967775  1
  C  C2  1  0.225792  0.250381  0.268609  1
  C  C3  1  0.656556  0.800083  0.597651  1
  C  C4  1  0.502906  0.013005  0.505003  1
  C  C5  1  0.449812  0.057790  0.320689  1
  C  C6  1  0.968222  0.364192  0.672505  1
  C  C7  1  0.134041  0.526141  0.633019  1
  C  C8  1  0.980029  0.738504  0.532386  1
  C  C9  1  0.096923  0.181903  0.817604  1
  C  C10  1  0.911005  0.028022  0.872851  1
  H  H11  1  0.103831  0.223113  0.924742  1
  H  H12  1  0.325619  0.118095  0.780289  1
  H  H13  1  0.831620  0.019774  0.765408  1
  H  H14  1  0.710989  0.069036  0.952465  1
  H  H15  1  0.098356  0.837503  0.542283  1
  H  H16  1  0.999024  0.762111  0.398101  1
  H  H17  1  0.169384  0.527533  0.753820  1
  H  H18  1  0.352459  0.485915  0.568819  1
  H  H19  1  0.981926  0.323449  0.562109  1
  H  H20  1  0.734564  0.414479  0.707840  1
  H  H21  1  0.655355  0.070625  0.238563  1
  H  H22  1  0.368790  0.943996  0.307594  1
  H  H23  1  0.286780  0.046890  0.573338  1
  H  H24  1  0.625726  0.115396  0.506520  1
  H  H25  1  0.647859  0.780371  0.730613  1
  H  H26  1  0.391849  0.485391  0.929896  1
  H  H27  1  0.867173  0.578401  0.341210  1
  H  H28  1  0.532138  0.703127  0.591262  1
  O  O29  1  0.588537  0.419236  0.968732  1
  O  O30  1  0.663405  0.633055  0.311073  1
  O  O31  1  0.987723  0.673910  0.971566  1
  O  O32  1  0.304892  0.804664  0.034963  1
  O  O33  1  0.981587  0.257385  0.219989  1
  O  O34  1  0.269919  0.402904  0.286201  1
  Sn  Sn35  1  0.636527  0.531768  0.134698  1
 
# Source:                            Huan_etal:SciDat(submitted)                                                     
# Class:                             organometallic_polymer_crystal                                                  
# Label:                             polyesters_inter                                                                
# Structure prediction method used:  minima-hopping                                                                  
# Number of atoms:                    35
# Number of atom types:                4
# Atom types:                         C  H  O Sn
# Dielectric constant, electronic:   2.87203E+00
# Dielectric constant, ionic:        1.90886E+00
# Dielectric constant, total:        4.78089E+00
# Band gap at the GGA level (eV):    3.75070E+00
# Band gap at the HSE06 level (eV):  5.43510E+00
# Atomization energy (eV/atom):     -5.41197E+00
# Volume of the unit cell (A^3):     2.73280E+02
