# generated using pymatgen
data_SnH20C11O6
_symmetry_space_group_name_H-M   'P 1'
_cell_length_a   4.86888889
_cell_length_b   6.93719802
_cell_length_c   9.31197292
_cell_angle_alpha   68.83622705
_cell_angle_beta   85.28076914
_cell_angle_gamma   87.43014813
_symmetry_Int_Tables_number   1
_chemical_formula_structural   SnH20C11O6
_chemical_formula_sum   'Sn1 H20 C11 O6'
_cell_volume   292.27819768
_cell_formula_units_Z   1
loop_
 _symmetry_equiv_pos_site_id
 _symmetry_equiv_pos_as_xyz
  1  'x, y, z'
loop_
 _atom_site_type_symbol
 _atom_site_label
 _atom_site_symmetry_multiplicity
 _atom_site_fract_x
 _atom_site_fract_y
 _atom_site_fract_z
 _atom_site_occupancy
  C  C1  1  0.506719  0.462069  0.867752  1
  C  C2  1  0.442507  0.811382  0.119220  1
  C  C3  1  0.264172  0.904664  0.437397  1
  C  C4  1  0.099391  0.903812  0.303420  1
  C  C5  1  0.276692  0.983346  0.148849  1
  C  C6  1  0.528993  0.172634  0.506722  1
  C  C7  1  0.276122  0.124805  0.439282  1
  C  C8  1  0.509986  0.395633  0.504794  1
  C  C9  1  0.769611  0.472732  0.546764  1
  C  C10  1  0.869677  0.338128  0.703510  1
  C  C11  1  0.650180  0.281770  0.838916  1
  H  H12  1  0.955972  0.191966  0.700658  1
  H  H13  1  0.034697  0.417069  0.730179  1
  H  H14  1  0.750537  0.195074  0.945143  1
  H  H15  1  0.492612  0.181603  0.827819  1
  H  H16  1  0.336546  0.409047  0.582589  1
  H  H17  1  0.733822  0.630833  0.544623  1
  H  H18  1  0.935646  0.479963  0.458569  1
  H  H19  1  0.552125  0.061651  0.624330  1
  H  H20  1  0.090605  0.152931  0.502846  1
  H  H21  1  0.265192  0.237099  0.321227  1
  H  H22  1  0.458750  0.498716  0.389666  1
  H  H23  1  0.713728  0.153810  0.437819  1
  H  H24  1  0.145156  0.048851  0.052331  1
  H  H25  1  0.415507  0.104089  0.145537  1
  H  H26  1  0.028225  0.750201  0.321262  1
  H  H27  1  0.917277  0.004159  0.293714  1
  H  H28  1  0.171207  0.800702  0.548425  1
  H  H29  1  0.299406  0.857376  0.792535  1
  H  H30  1  0.644556  0.403268  0.191766  1
  H  H31  1  0.473424  0.845232  0.424047  1
  O  O32  1  0.116004  0.893897  0.827637  1
  O  O33  1  0.828609  0.371649  0.154605  1
  O  O34  1  0.635861  0.630253  0.847071  1
  O  O35  1  0.250574  0.438942  0.914630  1
  O  O36  1  0.704620  0.833120  0.087500  1
  O  O37  1  0.323268  0.644604  0.127748  1
  Sn  Sn38  1  0.970078  0.636519  0.994255  1
 
# Source:                            Huan_etal:SciDat(submitted)                                                     
# Class:                             organometallic_polymer_crystal                                                  
# Label:                             polyesters_inter                                                                
# Structure prediction method used:  minima-hopping                                                                  
# Number of atoms:                    38
# Number of atom types:                4
# Atom types:                         C  H  O Sn
# Dielectric constant, electronic:   2.86716E+00
# Dielectric constant, ionic:        1.61703E+00
# Dielectric constant, total:        4.48419E+00
# Band gap at the GGA level (eV):    3.61770E+00
# Band gap at the HSE06 level (eV):  5.14290E+00
# Atomization energy (eV/atom):     -5.39166E+00
# Volume of the unit cell (A^3):     2.92278E+02
