# generated using pymatgen
data_SnH22(C2O)6
_symmetry_space_group_name_H-M   'P 1'
_cell_length_a   4.85185744
_cell_length_b   7.77162305
_cell_length_c   9.22799395
_cell_angle_alpha   71.65806420
_cell_angle_beta   81.85001853
_cell_angle_gamma   75.97295727
_symmetry_Int_Tables_number   1
_chemical_formula_structural   SnH22(C2O)6
_chemical_formula_sum   'Sn1 H22 C12 O6'
_cell_volume   319.620491392
_cell_formula_units_Z   1
loop_
 _symmetry_equiv_pos_site_id
 _symmetry_equiv_pos_as_xyz
  1  'x, y, z'
loop_
 _atom_site_type_symbol
 _atom_site_label
 _atom_site_symmetry_multiplicity
 _atom_site_fract_x
 _atom_site_fract_y
 _atom_site_fract_z
 _atom_site_occupancy
  C  C1  1  0.997087  0.624135  0.071518  1
  C  C2  1  0.132537  0.103702  0.300716  1
  C  C3  1  0.557464  0.694974  0.600209  1
  C  C4  1  0.421406  0.895117  0.514051  1
  C  C5  1  0.343380  0.923368  0.349543  1
  C  C6  1  0.862391  0.283234  0.681530  1
  C  C7  1  0.010385  0.443109  0.662532  1
  C  C8  1  0.873114  0.631506  0.554549  1
  C  C9  1  0.019480  0.099719  0.784077  1
  C  C10  1  0.888405  0.936009  0.787459  1
  C  C11  1  0.656819  0.892638  0.916304  1
  C  C12  1  0.783404  0.798218  0.072605  1
  H  H13  1  0.506825  0.018772  0.924724  1
  H  H14  1  0.538302  0.801623  0.894467  1
  H  H15  1  0.614381  0.757916  0.158559  1
  H  H16  1  0.884262  0.890155  0.105503  1
  H  H17  1  0.018262  0.110078  0.900028  1
  H  H18  1  0.054502  0.809528  0.796049  1
  H  H19  1  0.797530  0.967745  0.677719  1
  H  H20  1  0.641036  0.314103  0.726458  1
  H  H21  1  0.986137  0.735665  0.557318  1
  H  H22  1  0.901130  0.626014  0.435623  1
  H  H23  1  0.015255  0.460497  0.775895  1
  H  H24  1  0.231252  0.402346  0.619597  1
  H  H25  1  0.242028  0.077295  0.739485  1
  H  H26  1  0.859154  0.262629  0.569509  1
  H  H27  1  0.533152  0.935332  0.272083  1
  H  H28  1  0.258803  0.809315  0.341277  1
  H  H29  1  0.226792  0.939463  0.578433  1
  H  H30  1  0.559626  0.990003  0.507648  1
  H  H31  1  0.535773  0.681503  0.723333  1
  H  H32  1  0.327730  0.325127  0.974305  1
  H  H33  1  0.758061  0.419217  0.391286  1
  H  H34  1  0.437304  0.601405  0.584874  1
  O  O35  1  0.518261  0.262603  0.008856  1
  O  O36  1  0.570848  0.465946  0.350233  1
  O  O37  1  0.923220  0.487928  0.044627  1
  O  O38  1  0.254817  0.617148  0.093889  1
  O  O39  1  0.887447  0.104480  0.260703  1
  O  O40  1  0.194068  0.253036  0.307316  1
  Sn  Sn41  1  0.568953  0.362036  0.177203  1
 
# Source:                            Huan_etal:SciDat(submitted)                                                     
# Class:                             organometallic_polymer_crystal                                                  
# Label:                             polyesters_inter                                                                
# Structure prediction method used:  minima-hopping                                                                  
# Number of atoms:                    41
# Number of atom types:                4
# Atom types:                         C  H  O Sn
# Dielectric constant, electronic:   2.81514E+00
# Dielectric constant, ionic:        1.86023E+00
# Dielectric constant, total:        4.67538E+00
# Band gap at the GGA level (eV):    3.79210E+00
# Band gap at the HSE06 level (eV):  5.47350E+00
# Atomization energy (eV/atom):     -5.37183E+00
# Volume of the unit cell (A^3):     3.19620E+02
