# generated using pymatgen
data_SnH24C13O6
_symmetry_space_group_name_H-M   'P 1'
_cell_length_a   5.00646044
_cell_length_b   8.43904638
_cell_length_c   9.04620474
_cell_angle_alpha   109.79847114
_cell_angle_beta   93.46835110
_cell_angle_gamma   109.27366284
_symmetry_Int_Tables_number   1
_chemical_formula_structural   SnH24C13O6
_chemical_formula_sum   'Sn1 H24 C13 O6'
_cell_volume   333.004068127
_cell_formula_units_Z   1
loop_
 _symmetry_equiv_pos_site_id
 _symmetry_equiv_pos_as_xyz
  1  'x, y, z'
loop_
 _atom_site_type_symbol
 _atom_site_label
 _atom_site_symmetry_multiplicity
 _atom_site_fract_x
 _atom_site_fract_y
 _atom_site_fract_z
 _atom_site_occupancy
  C  C1  1  0.358660  0.341750  0.058307  1
  C  C2  1  0.698650  0.851325  0.293012  1
  C  C3  1  0.714753  0.291857  0.622131  1
  C  C4  1  0.683943  0.092136  0.540958  1
  C  C5  1  0.678850  0.035518  0.358746  1
  C  C6  1  0.914886  0.752492  0.641737  1
  C  C7  1  0.590696  0.635778  0.589898  1
  C  C8  1  0.429545  0.323335  0.617514  1
  C  C9  1  0.013891  0.915315  0.802814  1
  C  C10  1  0.348391  0.997456  0.846408  1
  C  C11  1  0.485519  0.071322  0.023975  1
  C  C12  1  0.365568  0.206863  0.131068  1
  C  C13  1  0.469644  0.525370  0.693468  1
  H  H14  1  0.263571  0.533804  0.718158  1
  H  H15  1  0.607353  0.584895  0.812215  1
  H  H16  1  0.445888  0.957954  0.062193  1
  H  H17  1  0.717950  0.138131  0.038565  1
  H  H18  1  0.504281  0.281690  0.249777  1
  H  H19  1  0.146978  0.138162  0.144377  1
  H  H20  1  0.918434  0.875203  0.897297  1
  H  H21  1  0.427393  0.105225  0.800600  1
  H  H22  1  0.430238  0.893614  0.783643  1
  H  H23  1  0.029516  0.664263  0.647898  1
  H  H24  1  0.294368  0.250617  0.682672  1
  H  H25  1  0.309888  0.264601  0.493346  1
  H  H26  1  0.473810  0.724672  0.589004  1
  H  H27  1  0.554994  0.542593  0.465564  1
  H  H28  1  0.930828  0.018277  0.797257  1
  H  H29  1  0.988580  0.803343  0.548788  1
  H  H30  1  0.474406  0.027377  0.301534  1
  H  H31  1  0.856829  0.134940  0.335247  1
  H  H32  1  0.864032  0.072126  0.595920  1
  H  H33  1  0.485950  0.000535  0.557975  1
  H  H34  1  0.133438  0.546828  0.408006  1
  H  H35  1  0.822619  0.344719  0.747423  1
  H  H36  1  0.019207  0.734821  0.958304  1
  H  H37  1  0.857781  0.370998  0.564458  1
  O  O38  1  0.138624  0.670425  0.977428  1
  O  O39  1  0.958227  0.484274  0.325714  1
  O  O40  1  0.587733  0.442273  0.027990  1
  O  O41  1  0.114847  0.349416  0.018010  1
  O  O42  1  0.946307  0.842282  0.268403  1
  O  O43  1  0.480231  0.708958  0.274424  1
  Sn  Sn44  1  0.022635  0.586274  0.153416  1
 
# Source:                            Huan_etal:SciDat(submitted)                                                     
# Class:                             organometallic_polymer_crystal                                                  
# Label:                             polyesters_inter                                                                
# Structure prediction method used:  minima-hopping                                                                  
# Number of atoms:                    44
# Number of atom types:                4
# Atom types:                         C  H  O Sn
# Dielectric constant, electronic:   2.85197E+00
# Dielectric constant, ionic:        2.68019E+00
# Dielectric constant, total:        5.53216E+00
# Band gap at the GGA level (eV):    3.36370E+00
# Band gap at the HSE06 level (eV):  5.15600E+00
# Atomization energy (eV/atom):     -5.34799E+00
# Volume of the unit cell (A^3):     3.33004E+02
