# generated using pymatgen
data_TiH18(C3O)4
_symmetry_space_group_name_H-M   'P 1'
_cell_length_a   6.10300228
_cell_length_b   6.01105679
_cell_length_c   7.96362209
_cell_angle_alpha   93.84685834
_cell_angle_beta   105.32142314
_cell_angle_gamma   101.78245651
_symmetry_Int_Tables_number   1
_chemical_formula_structural   TiH18(C3O)4
_chemical_formula_sum   'Ti1 H18 C12 O4'
_cell_volume   273.55289345
_cell_formula_units_Z   1
loop_
 _symmetry_equiv_pos_site_id
 _symmetry_equiv_pos_as_xyz
  1  'x, y, z'
loop_
 _atom_site_type_symbol
 _atom_site_label
 _atom_site_symmetry_multiplicity
 _atom_site_fract_x
 _atom_site_fract_y
 _atom_site_fract_z
 _atom_site_occupancy
  C  C1  1  0.875818  0.939302  0.105056  1
  C  C2  1  0.189212  0.412453  0.970233  1
  C  C3  1  0.630553  0.388729  0.692955  1
  C  C4  1  0.574048  0.265799  0.819419  1
  C  C5  1  0.176532  0.678164  0.391378  1
  C  C6  1  0.355269  0.808457  0.320887  1
  C  C7  1  0.192529  0.687369  0.581157  1
  C  C8  1  0.599811  0.925279  0.428735  1
  C  C9  1  0.550902  0.339829  0.494984  1
  C  C10  1  0.426378  0.030755  0.813578  1
  C  C11  1  0.672688  0.181420  0.409015  1
  C  C12  1  0.204078  0.937463  0.659362  1
  H  H13  1  0.990497  0.026161  0.231809  1
  H  H14  1  0.074859  0.275177  0.868742  1
  H  H15  1  0.623732  0.900090  0.566379  1
  H  H16  1  0.717530  0.836070  0.383175  1
  H  H17  1  0.346674  0.631205  0.652593  1
  H  H18  1  0.040056  0.570222  0.596254  1
  H  H19  1  0.325032  0.512919  0.923293  1
  H  H20  1  0.587278  0.503969  0.445218  1
  H  H21  1  0.361082  0.272863  0.446292  1
  H  H22  1  0.267582  0.345830  0.090538  1
  H  H23  1  0.380273  0.030839  0.936880  1
  H  H24  1  0.539613  0.909981  0.820444  1
  H  H25  1  0.897795  0.043147  0.001202  1
  H  H26  1  0.693707  0.894487  0.104488  1
  H  H27  1  0.861822  0.237342  0.466952  1
  H  H28  1  0.639046  0.202734  0.269934  1
  H  H29  1  0.191000  0.049464  0.556442  1
  H  H30  1  0.048577  0.933648  0.703563  1
  O  O31  1  0.285361  0.815046  0.155290  1
  O  O32  1  0.793752  0.597532  0.763062  1
  O  O33  1  0.986199  0.575410  0.277516  1
  O  O34  1  0.687740  0.367612  0.989599  1
  Ti  Ti35  1  0.945473  0.617634  0.010024  1
 
# Source:                            Huan_etal:SciDat(submitted)                                                     
# Class:                             organometallic_polymer_crystal                                                  
# Label:                             Ti-based_polymer                                                                
# Structure prediction method used:  minima-hopping                                                                  
# Number of atoms:                    35
# Number of atom types:                4
# Atom types:                         C  H  O Ti
# Dielectric constant, electronic:   4.76712E+00
# Dielectric constant, ionic:        8.73518E-01
# Dielectric constant, total:        5.64063E+00
# Band gap at the GGA level (eV):    3.77200E-01
# Band gap at the HSE06 level (eV):  1.17190E+00
# Atomization energy (eV/atom):     -5.55852E+00
# Volume of the unit cell (A^3):     2.73553E+02
