# generated using pymatgen
data_TiH14(C3O2)3
_symmetry_space_group_name_H-M   'P 1'
_cell_length_a   5.26308974
_cell_length_b   6.08725071
_cell_length_c   7.55702359
_cell_angle_alpha   88.33497257
_cell_angle_beta   102.03162488
_cell_angle_gamma   91.17757727
_symmetry_Int_Tables_number   1
_chemical_formula_structural   TiH14(C3O2)3
_chemical_formula_sum   'Ti1 H14 C9 O6'
_cell_volume   236.665509789
_cell_formula_units_Z   1
loop_
 _symmetry_equiv_pos_site_id
 _symmetry_equiv_pos_as_xyz
  1  'x, y, z'
loop_
 _atom_site_type_symbol
 _atom_site_label
 _atom_site_symmetry_multiplicity
 _atom_site_fract_x
 _atom_site_fract_y
 _atom_site_fract_z
 _atom_site_occupancy
  C  C1  1  0.728323  0.401405  0.722689  1
  C  C2  1  0.566111  0.299979  0.847322  1
  C  C3  1  0.198682  0.741845  0.398737  1
  C  C4  1  0.369533  0.809665  0.290025  1
  C  C5  1  0.174355  0.811215  0.583333  1
  C  C6  1  0.583365  0.976608  0.332324  1
  C  C7  1  0.635512  0.429759  0.527877  1
  C  C8  1  0.415547  0.090448  0.799709  1
  C  C9  1  0.198809  0.058052  0.629957  1
  H  H10  1  0.786491  0.399673  0.453292  1
  H  H11  1  0.652191  0.763762  0.032529  1
  H  H12  1  0.992976  0.072949  0.085222  1
  H  H13  1  0.625100  0.011850  0.476141  1
  H  H14  1  0.759031  0.913242  0.298380  1
  H  H15  1  0.313785  0.714684  0.684744  1
  H  H16  1  0.986587  0.749757  0.602201  1
  H  H17  1  0.590799  0.605804  0.500774  1
  H  H18  1  0.455927  0.343677  0.474536  1
  H  H19  1  0.343751  0.035091  0.919314  1
  H  H20  1  0.576093  0.978910  0.791570  1
  H  H21  1  0.220991  0.158423  0.512791  1
  H  H22  1  0.017040  0.107657  0.663056  1
  H  H23  1  0.534639  0.128575  0.253499  1
  O  O24  1  0.833590  0.781315  0.020128  1
  O  O25  1  0.090494  0.211664  0.116100  1
  O  O26  1  0.351516  0.693546  0.135942  1
  O  O27  1  0.954427  0.466675  0.799695  1
  O  O28  1  0.059482  0.558197  0.341609  1
  O  O29  1  0.621691  0.360569  0.008620  1
  Ti  Ti30  1  0.028680  0.512643  0.085205  1
 
# Source:                            Huan_etal:SciDat(submitted)                                                     
# Class:                             organometallic_polymer_crystal                                                  
# Label:                             Ti-based_polymer                                                                
# Structure prediction method used:  minima-hopping                                                                  
# Number of atoms:                    30
# Number of atom types:                4
# Atom types:                         C  H  O Ti
# Dielectric constant, electronic:   5.57883E+00
# Dielectric constant, ionic:        6.22476E+00
# Dielectric constant, total:        1.18036E+01
# Band gap at the GGA level (eV):    4.77700E-01
# Band gap at the HSE06 level (eV):  1.00440E+00
# Atomization energy (eV/atom):     -5.70396E+00
# Volume of the unit cell (A^3):     2.36666E+02
