# generated using pymatgen
data_TiH6(CO)4
_symmetry_space_group_name_H-M   'P 1'
_cell_length_a   4.92356058
_cell_length_b   5.43778629
_cell_length_c   6.07930239
_cell_angle_alpha   116.53322686
_cell_angle_beta   109.57668230
_cell_angle_gamma   92.18494635
_symmetry_Int_Tables_number   1
_chemical_formula_structural   TiH6(CO)4
_chemical_formula_sum   'Ti1 H6 C4 O4'
_cell_volume   133.753670947
_cell_formula_units_Z   1
loop_
 _symmetry_equiv_pos_site_id
 _symmetry_equiv_pos_as_xyz
  1  'x, y, z'
loop_
 _atom_site_type_symbol
 _atom_site_label
 _atom_site_symmetry_multiplicity
 _atom_site_fract_x
 _atom_site_fract_y
 _atom_site_fract_z
 _atom_site_occupancy
  C  C1  1  0.476591  0.841973  0.943833  1
  C  C2  1  0.067263  0.364550  0.105873  1
  C  C3  1  0.886124  0.935457  0.516817  1
  C  C4  1  0.827984  0.215416  0.533476  1
  H  H5  1  0.674014  0.767727  0.017026  1
  H  H6  1  0.537458  0.059764  0.991350  1
  H  H7  1  0.316316  0.817745  0.023801  1
  H  H8  1  0.202836  0.426858  0.021201  1
  H  H9  1  0.047130  0.141283  0.047617  1
  H  H10  1  0.850999  0.414404  0.052537  1
  O  O11  1  0.131048  0.885505  0.514997  1
  O  O12  1  0.679483  0.767948  0.503003  1
  O  O13  1  0.029436  0.373887  0.544477  1
  O  O14  1  0.577089  0.271627  0.536648  1
  Ti  Ti15  1  0.366041  0.569383  0.521573  1
 
# Source:                            Huan_etal:SciDat(submitted)                                                     
# Class:                             organometallic_polymer_crystal                                                  
# Label:                             Ti-based_polymer                                                                
# Structure prediction method used:  minima-hopping                                                                  
# Number of atoms:                    15
# Number of atom types:                4
# Atom types:                         C  H  O Ti
# Dielectric constant, electronic:   5.56014E+00
# Dielectric constant, ionic:        5.07574E+00
# Dielectric constant, total:        1.06359E+01
# Band gap at the GGA level (eV):    7.45500E-01
# Band gap at the HSE06 level (eV):  1.96250E+00
# Atomization energy (eV/atom):     -5.86984E+00
# Volume of the unit cell (A^3):     1.33754E+02
