# generated using pymatgen
data_TiH12C7O4
_symmetry_space_group_name_H-M   'P 1'
_cell_length_a   4.69541913
_cell_length_b   5.93021274
_cell_length_c   7.18396333
_cell_angle_alpha   82.20365865
_cell_angle_beta   86.80896166
_cell_angle_gamma   74.22971303
_symmetry_Int_Tables_number   1
_chemical_formula_structural   TiH12C7O4
_chemical_formula_sum   'Ti1 H12 C7 O4'
_cell_volume   190.690212012
_cell_formula_units_Z   1
loop_
 _symmetry_equiv_pos_site_id
 _symmetry_equiv_pos_as_xyz
  1  'x, y, z'
loop_
 _atom_site_type_symbol
 _atom_site_label
 _atom_site_symmetry_multiplicity
 _atom_site_fract_x
 _atom_site_fract_y
 _atom_site_fract_z
 _atom_site_occupancy
  C  C1  1  0.819749  0.977340  0.084118  1
  C  C2  1  0.830792  0.509580  0.410809  1
  C  C3  1  0.353686  0.450499  0.985968  1
  C  C4  1  0.442540  0.048362  0.493958  1
  C  C5  1  0.314353  0.978277  0.684451  1
  C  C6  1  0.216948  0.747491  0.693380  1
  C  C7  1  0.447964  0.528864  0.790119  1
  H  H8  1  0.602822  0.615785  0.415181  1
  H  H9  1  0.912570  0.438463  0.551315  1
  H  H10  1  0.972578  0.615076  0.338956  1
  H  H11  1  0.643070  0.891717  0.119526  1
  H  H12  1  0.120065  0.123879  0.707756  1
  H  H13  1  0.473027  0.966175  0.793079  1
  H  H14  1  0.798043  0.065813  0.939165  1
  H  H15  1  0.177624  0.718357  0.552108  1
  H  H16  1  0.005277  0.768354  0.768550  1
  H  H17  1  0.036124  0.846149  0.095146  1
  H  H18  1  0.475842  0.379759  0.710299  1
  H  H19  1  0.663639  0.562632  0.796173  1
  O  O20  1  0.505998  0.449541  0.126700  1
  O  O21  1  0.273946  0.068491  0.349174  1
  O  O22  1  0.690378  0.090751  0.475733  1
  O  O23  1  0.110439  0.385135  0.003458  1
  Ti  Ti24  1  0.917255  0.243127  0.226883  1
 
# Source:                            Huan_etal:SciDat(submitted)                                                     
# Class:                             organometallic_polymer_crystal                                                  
# Label:                             Ti-based_polymer                                                                
# Structure prediction method used:  minima-hopping                                                                  
# Number of atoms:                    24
# Number of atom types:                4
# Atom types:                         C  H  O Ti
# Dielectric constant, electronic:   3.42250E+00
# Dielectric constant, ionic:        1.98388E+00
# Dielectric constant, total:        5.40637E+00
# Band gap at the GGA level (eV):    1.57250E+00
# Band gap at the HSE06 level (eV):  3.11880E+00
# Atomization energy (eV/atom):     -5.60206E+00
# Volume of the unit cell (A^3):     1.90690E+02
