# generated using pymatgen
data_TiH18(C5O2)2
_symmetry_space_group_name_H-M   'P 1'
_cell_length_a   4.91408318
_cell_length_b   6.42161792
_cell_length_c   8.75016481
_cell_angle_alpha   76.63671370
_cell_angle_beta   77.19222993
_cell_angle_gamma   80.26344837
_symmetry_Int_Tables_number   1
_chemical_formula_structural   TiH18(C5O2)2
_chemical_formula_sum   'Ti1 H18 C10 O4'
_cell_volume   259.93288298
_cell_formula_units_Z   1
loop_
 _symmetry_equiv_pos_site_id
 _symmetry_equiv_pos_as_xyz
  1  'x, y, z'
loop_
 _atom_site_type_symbol
 _atom_site_label
 _atom_site_symmetry_multiplicity
 _atom_site_fract_x
 _atom_site_fract_y
 _atom_site_fract_z
 _atom_site_occupancy
  C  C1  1  0.295528  0.969644  0.960005  1
  C  C2  1  0.015978  0.591395  0.729269  1
  C  C3  1  0.606448  0.369608  0.002312  1
  C  C4  1  0.835963  0.150893  0.591548  1
  C  C5  1  0.867745  0.033227  0.456551  1
  C  C6  1  0.594238  0.960091  0.444729  1
  C  C7  1  0.625204  0.851173  0.302673  1
  C  C8  1  0.806109  0.630320  0.319073  1
  C  C9  1  0.843681  0.531682  0.170867  1
  C  C10  1  0.569707  0.469198  0.147983  1
  H  H11  1  0.525011  0.940458  0.949777  1
  H  H12  1  0.033337  0.898912  0.472256  1
  H  H13  1  0.947774  0.143914  0.345807  1
  H  H14  1  0.191242  0.962401  0.084339  1
  H  H15  1  0.433592  0.099377  0.435726  1
  H  H16  1  0.518691  0.850674  0.557075  1
  H  H17  1  0.227249  0.850242  0.909772  1
  H  H18  1  0.415062  0.830909  0.289922  1
  H  H19  1  0.713465  0.957452  0.191813  1
  H  H20  1  0.191819  0.654107  0.637531  1
  H  H21  1  0.707332  0.523051  0.425948  1
  H  H22  1  0.014442  0.645374  0.338714  1
  H  H23  1  0.838777  0.587073  0.673925  1
  H  H24  1  0.003084  0.390847  0.175247  1
  H  H25  1  0.925322  0.648138  0.065135  1
  H  H26  1  0.952567  0.693852  0.817908  1
  H  H27  1  0.483641  0.350734  0.252489  1
  H  H28  1  0.408821  0.607784  0.136216  1
  O  O29  1  0.056652  0.165576  0.639931  1
  O  O30  1  0.591473  0.239123  0.648306  1
  O  O31  1  0.834640  0.256200  0.957653  1
  O  O32  1  0.393380  0.403125  0.932511  1
  Ti  Ti33  1  0.225887  0.269449  0.795723  1
 
# Source:                            Huan_etal:SciDat(submitted)                                                     
# Class:                             organometallic_polymer_crystal                                                  
# Label:                             Ti-based_polymer                                                                
# Structure prediction method used:  minima-hopping                                                                  
# Number of atoms:                    33
# Number of atom types:                4
# Atom types:                         C  H  O Ti
# Dielectric constant, electronic:   3.21996E+00
# Dielectric constant, ionic:        2.34643E+00
# Dielectric constant, total:        5.56639E+00
# Band gap at the GGA level (eV):    1.41990E+00
# Band gap at the HSE06 level (eV):  2.95710E+00
# Atomization energy (eV/atom):     -5.47972E+00
# Volume of the unit cell (A^3):     2.59933E+02
