# generated using pymatgen
data_TiH22(C3O)4
_symmetry_space_group_name_H-M   'P 1'
_cell_length_a   4.93681035
_cell_length_b   7.02643929
_cell_length_c   9.11478435
_cell_angle_alpha   75.61522834
_cell_angle_beta   77.32474959
_cell_angle_gamma   83.64141914
_symmetry_Int_Tables_number   1
_chemical_formula_structural   TiH22(C3O)4
_chemical_formula_sum   'Ti1 H22 C12 O4'
_cell_volume   298.269754889
_cell_formula_units_Z   1
loop_
 _symmetry_equiv_pos_site_id
 _symmetry_equiv_pos_as_xyz
  1  'x, y, z'
loop_
 _atom_site_type_symbol
 _atom_site_label
 _atom_site_symmetry_multiplicity
 _atom_site_fract_x
 _atom_site_fract_y
 _atom_site_fract_z
 _atom_site_occupancy
  C  C1  1  0.330821  0.023562  0.950723  1
  C  C2  1  0.109036  0.611955  0.825339  1
  C  C3  1  0.662580  0.315070  0.028971  1
  C  C4  1  0.851335  0.239073  0.624521  1
  C  C5  1  0.865126  0.068777  0.548106  1
  C  C6  1  0.613285  0.939795  0.595721  1
  C  C7  1  0.561645  0.848695  0.467336  1
  C  C8  1  0.820986  0.751130  0.380247  1
  C  C9  1  0.793173  0.735974  0.218060  1
  C  C10  1  0.525532  0.647947  0.211589  1
  C  C11  1  0.507080  0.426526  0.283658  1
  C  C12  1  0.719273  0.307173  0.186942  1
  H  H13  1  0.904013  0.138088  0.424141  1
  H  H14  1  0.264050  0.012384  0.074658  1
  H  H15  1  0.425868  0.026393  0.633465  1
  H  H16  1  0.645578  0.823555  0.696114  1
  H  H17  1  0.210260  0.927938  0.914778  1
  H  H18  1  0.403026  0.740737  0.518473  1
  H  H19  1  0.468528  0.964186  0.384340  1
  H  H20  1  0.293505  0.696168  0.795380  1
  H  H21  1  0.870864  0.606515  0.451445  1
  H  H22  1  0.000407  0.837851  0.364865  1
  H  H23  1  0.987162  0.654441  0.734016  1
  H  H24  1  0.977335  0.654056  0.167966  1
  H  H25  1  0.799371  0.884284  0.142462  1
  H  H26  1  0.983449  0.634988  0.934436  1
  H  H27  1  0.347651  0.728095  0.267448  1
  H  H28  1  0.505514  0.675181  0.090848  1
  H  H29  1  0.553141  0.981511  0.922954  1
  H  H30  1  0.539332  0.391850  0.402510  1
  H  H31  1  0.297183  0.382962  0.290286  1
  H  H32  1  0.054333  0.979564  0.567624  1
  H  H33  1  0.722196  0.150182  0.242291  1
  H  H34  1  0.932156  0.350195  0.171251  1
  O  O35  1  0.864937  0.255954  0.931424  1
  O  O36  1  0.422693  0.364599  0.999042  1
  O  O37  1  0.085892  0.295148  0.631478  1
  O  O38  1  0.620056  0.329723  0.670139  1
  Ti  Ti39  1  0.247410  0.314067  0.815178  1
 
# Source:                            Huan_etal:SciDat(submitted)                                                     
# Class:                             organometallic_polymer_crystal                                                  
# Label:                             Ti-based_polymer                                                                
# Structure prediction method used:  minima-hopping                                                                  
# Number of atoms:                    39
# Number of atom types:                4
# Atom types:                         C  H  O Ti
# Dielectric constant, electronic:   3.12010E+00
# Dielectric constant, ionic:        1.87042E+00
# Dielectric constant, total:        4.99052E+00
# Band gap at the GGA level (eV):    1.62860E+00
# Band gap at the HSE06 level (eV):  3.16240E+00
# Atomization energy (eV/atom):     -5.42133E+00
# Volume of the unit cell (A^3):     2.98270E+02
