# generated using pymatgen
data_TiH24C13O4
_symmetry_space_group_name_H-M   'P 1'
_cell_length_a   4.86469536
_cell_length_b   6.22030843
_cell_length_c   10.92940256
_cell_angle_alpha   76.27715687
_cell_angle_beta   86.48195691
_cell_angle_gamma   88.68449099
_symmetry_Int_Tables_number   1
_chemical_formula_structural   TiH24C13O4
_chemical_formula_sum   'Ti1 H24 C13 O4'
_cell_volume   320.664598396
_cell_formula_units_Z   1
loop_
 _symmetry_equiv_pos_site_id
 _symmetry_equiv_pos_as_xyz
  1  'x, y, z'
loop_
 _atom_site_type_symbol
 _atom_site_label
 _atom_site_symmetry_multiplicity
 _atom_site_fract_x
 _atom_site_fract_y
 _atom_site_fract_z
 _atom_site_occupancy
  C  C1  1  0.922700  0.219232  0.917853  1
  C  C2  1  0.195735  0.727077  0.739811  1
  C  C3  1  0.445055  0.692241  0.007224  1
  C  C4  1  0.488588  0.172357  0.668327  1
  C  C5  1  0.562299  0.346084  0.549437  1
  C  C6  1  0.768890  0.512370  0.576059  1
  C  C7  1  0.894108  0.666515  0.456011  1
  C  C8  1  0.685696  0.825662  0.380862  1
  C  C9  1  0.788630  0.937516  0.244242  1
  C  C10  1  0.087513  0.020315  0.230719  1
  C  C11  1  0.123945  0.226659  0.283882  1
  C  C12  1  0.135111  0.443953  0.180335  1
  C  C13  1  0.415374  0.478791  0.108214  1
  H  H14  1  0.808380  0.150788  0.007503  1
  H  H15  1  0.934333  0.417915  0.627361  1
  H  H16  1  0.665834  0.609441  0.636933  1
  H  H17  1  0.112482  0.296354  0.932865  1
  H  H18  1  0.058039  0.761964  0.481984  1
  H  H19  1  0.993415  0.564384  0.396975  1
  H  H20  1  0.209948  0.803159  0.638696  1
  H  H21  1  0.624061  0.949816  0.434123  1
  H  H22  1  0.498585  0.734309  0.376406  1
  H  H23  1  0.401411  0.686089  0.772375  1
  H  H24  1  0.650543  0.074912  0.206118  1
  H  H25  1  0.772368  0.818935  0.185289  1
  H  H26  1  0.072608  0.577411  0.758704  1
  H  H27  1  0.218427  0.885516  0.277551  1
  H  H28  1  0.158896  0.056185  0.131397  1
  H  H29  1  0.792044  0.340676  0.857911  1
  H  H30  1  0.953495  0.236158  0.352775  1
  H  H31  1  0.310958  0.211784  0.336755  1
  H  H32  1  0.373525  0.426495  0.511998  1
  H  H33  1  0.093946  0.584970  0.221772  1
  H  H34  1  0.976833  0.445679  0.113636  1
  H  H35  1  0.659444  0.260989  0.480727  1
  H  H36  1  0.466278  0.345682  0.060005  1
  H  H37  1  0.578802  0.474707  0.173434  1
  O  O38  1  0.689245  0.038142  0.714869  1
  O  O39  1  0.240740  0.819355  0.977236  1
  O  O40  1  0.690324  0.732351  0.954994  1
  O  O41  1  0.249476  0.162247  0.718201  1
  Ti  Ti42  1  0.954241  0.932651  0.839712  1
 
# Source:                            Huan_etal:SciDat(submitted)                                                     
# Class:                             organometallic_polymer_crystal                                                  
# Label:                             Ti-based_polymer                                                                
# Structure prediction method used:  minima-hopping                                                                  
# Number of atoms:                    42
# Number of atom types:                4
# Atom types:                         C  H  O Ti
# Dielectric constant, electronic:   3.10758E+00
# Dielectric constant, ionic:        1.40752E+00
# Dielectric constant, total:        4.51510E+00
# Band gap at the GGA level (eV):    1.62850E+00
# Band gap at the HSE06 level (eV):  3.20230E+00
# Atomization energy (eV/atom):     -5.40198E+00
# Volume of the unit cell (A^3):     3.20665E+02
