# generated using pymatgen
data_TiH8C5O4
_symmetry_space_group_name_H-M   'P 1'
_cell_length_a   4.48717869
_cell_length_b   5.92472025
_cell_length_c   6.05947326
_cell_angle_alpha   69.80621618
_cell_angle_beta   86.69939142
_cell_angle_gamma   88.98086816
_symmetry_Int_Tables_number   1
_chemical_formula_structural   TiH8C5O4
_chemical_formula_sum   'Ti1 H8 C5 O4'
_cell_volume   150.939318724
_cell_formula_units_Z   1
loop_
 _symmetry_equiv_pos_site_id
 _symmetry_equiv_pos_as_xyz
  1  'x, y, z'
loop_
 _atom_site_type_symbol
 _atom_site_label
 _atom_site_symmetry_multiplicity
 _atom_site_fract_x
 _atom_site_fract_y
 _atom_site_fract_z
 _atom_site_occupancy
  C  C1  1  0.686028  0.300400  0.301324  1
  C  C2  1  0.835659  0.926383  0.867589  1
  C  C3  1  0.082992  0.432951  0.798234  1
  C  C4  1  0.116811  0.774314  0.376031  1
  C  C5  1  0.253954  0.621412  0.601707  1
  H  H6  1  0.343407  0.746347  0.679465  1
  H  H7  1  0.452281  0.536759  0.554411  1
  H  H8  1  0.909089  0.295794  0.365322  1
  H  H9  1  0.527546  0.210308  0.450331  1
  H  H10  1  0.611026  0.483916  0.213895  1
  H  H11  1  0.871670  0.739209  0.972805  1
  H  H12  1  0.040374  0.007262  0.769132  1
  H  H13  1  0.663176  0.936979  0.743280  1
  O  O14  1  0.804772  0.401018  0.801266  1
  O  O15  1  0.237395  0.300165  0.968635  1
  O  O16  1  0.310270  0.837424  0.196302  1
  O  O17  1  0.850885  0.845276  0.363239  1
  Ti  Ti18  1  0.606409  0.100992  0.079230  1
 
# Source:                            Huan_etal:SciDat(submitted)                                                     
# Class:                             organometallic_polymer_crystal                                                  
# Label:                             Ti-based_polymer                                                                
# Structure prediction method used:  minima-hopping                                                                  
# Number of atoms:                    18
# Number of atom types:                4
# Atom types:                         C  H  O Ti
# Dielectric constant, electronic:   3.57158E+00
# Dielectric constant, ionic:        2.09578E+00
# Dielectric constant, total:        5.66736E+00
# Band gap at the GGA level (eV):    1.96150E+00
# Band gap at the HSE06 level (eV):  3.59310E+00
# Atomization energy (eV/atom):     -5.74195E+00
# Volume of the unit cell (A^3):     1.50939E+02
