# generated using pymatgen
data_TiH16C9O4
_symmetry_space_group_name_H-M   'P 1'
_cell_length_a   4.54801586
_cell_length_b   6.62939332
_cell_length_c   8.43731133
_cell_angle_alpha   97.56521031
_cell_angle_beta   101.67827275
_cell_angle_gamma   106.12601415
_symmetry_Int_Tables_number   1
_chemical_formula_structural   TiH16C9O4
_chemical_formula_sum   'Ti1 H16 C9 O4'
_cell_volume   234.500807684
_cell_formula_units_Z   1
loop_
 _symmetry_equiv_pos_site_id
 _symmetry_equiv_pos_as_xyz
  1  'x, y, z'
loop_
 _atom_site_type_symbol
 _atom_site_label
 _atom_site_symmetry_multiplicity
 _atom_site_fract_x
 _atom_site_fract_y
 _atom_site_fract_z
 _atom_site_occupancy
  C  C1  1  0.489818  0.974207  0.435333  1
  C  C2  1  0.107386  0.334973  0.301605  1
  C  C3  1  0.559646  0.713244  0.144925  1
  C  C4  1  0.751499  0.593196  0.629454  1
  C  C5  1  0.739594  0.130892  0.868486  1
  C  C6  1  0.610492  0.305653  0.809607  1
  C  C7  1  0.855406  0.449266  0.738155  1
  C  C8  1  0.706466  0.841220  0.030000  1
  C  C9  1  0.527656  0.983964  0.954066  1
  H  H10  1  0.306397  0.888502  0.864806  1
  H  H11  1  0.465237  0.079711  0.050594  1
  H  H12  1  0.944700  0.938130  0.100787  1
  H  H13  1  0.741262  0.730487  0.933103  1
  H  H14  1  0.060607  0.547883  0.837133  1
  H  H15  1  0.949569  0.349581  0.660562  1
  H  H16  1  0.383418  0.235095  0.718010  1
  H  H17  1  0.564412  0.398104  0.914037  1
  H  H18  1  0.906992  0.288296  0.193944  1
  H  H19  1  0.776859  0.033330  0.763532  1
  H  H20  1  0.480475  0.044103  0.325289  1
  H  H21  1  0.395138  0.060018  0.521584  1
  H  H22  1  0.731443  0.983028  0.492249  1
  H  H23  1  0.315171  0.309911  0.267567  1
  H  H24  1  0.047570  0.245365  0.396723  1
  H  H25  1  0.974198  0.208571  0.953410  1
  O  O26  1  0.743320  0.650973  0.253357  1
  O  O27  1  0.270542  0.675399  0.142760  1
  O  O28  1  0.972188  0.718769  0.577512  1
  O  O29  1  0.467367  0.589034  0.589213  1
  Ti  Ti30  1  0.155011  0.661017  0.389085  1
 
# Source:                            Huan_etal:SciDat(submitted)                                                     
# Class:                             organometallic_polymer_crystal                                                  
# Label:                             Ti-based_polymer                                                                
# Structure prediction method used:  minima-hopping                                                                  
# Number of atoms:                    30
# Number of atom types:                4
# Atom types:                         C  H  O Ti
# Dielectric constant, electronic:   3.20113E+00
# Dielectric constant, ionic:        1.64904E+00
# Dielectric constant, total:        4.85017E+00
# Band gap at the GGA level (eV):    1.89810E+00
# Band gap at the HSE06 level (eV):  3.56640E+00
# Atomization energy (eV/atom):     -5.51119E+00
# Volume of the unit cell (A^3):     2.34501E+02
