# generated using pymatgen
data_TiH22(C3O)4
_symmetry_space_group_name_H-M   'P 1'
_cell_length_a   4.80699249
_cell_length_b   7.56242539
_cell_length_c   9.38588688
_cell_angle_alpha   67.16838450
_cell_angle_beta   83.88940754
_cell_angle_gamma   75.61437600
_symmetry_Int_Tables_number   1
_chemical_formula_structural   TiH22(C3O)4
_chemical_formula_sum   'Ti1 H22 C12 O4'
_cell_volume   304.588072208
_cell_formula_units_Z   1
loop_
 _symmetry_equiv_pos_site_id
 _symmetry_equiv_pos_as_xyz
  1  'x, y, z'
loop_
 _atom_site_type_symbol
 _atom_site_label
 _atom_site_symmetry_multiplicity
 _atom_site_fract_x
 _atom_site_fract_y
 _atom_site_fract_z
 _atom_site_occupancy
  C  C1  1  0.395170  0.629598  0.012651  1
  C  C2  1  0.456037  0.026041  0.213872  1
  C  C3  1  0.868481  0.275886  0.936206  1
  C  C4  1  0.744744  0.408242  0.305431  1
  C  C5  1  0.326712  0.599457  0.611176  1
  C  C6  1  0.484534  0.454179  0.536097  1
  C  C7  1  0.561380  0.556829  0.364710  1
  C  C8  1  0.023034  0.977911  0.667877  1
  C  C9  1  0.867083  0.841877  0.636853  1
  C  C10  1  0.037262  0.727430  0.538841  1
  C  C11  1  0.880079  0.037813  0.801683  1
  C  C12  1  0.036431  0.171443  0.834931  1
  H  H13  1  0.877735  0.905846  0.906145  1
  H  H14  1  0.655529  0.111667  0.775319  1
  H  H15  1  0.082267  0.286838  0.726818  1
  H  H16  1  0.245707  0.089902  0.887768  1
  H  H17  1  0.910776  0.630855  0.529262  1
  H  H18  1  0.066230  0.829998  0.420895  1
  H  H19  1  0.812735  0.735037  0.748502  1
  H  H20  1  0.663211  0.931505  0.580057  1
  H  H21  1  0.026107  0.109372  0.562471  1
  H  H22  1  0.247826  0.905846  0.696464  1
  H  H23  1  0.364518  0.624814  0.297948  1
  H  H24  1  0.676057  0.669710  0.350161  1
  H  H25  1  0.682885  0.370074  0.598691  1
  H  H26  1  0.357812  0.348420  0.543900  1
  H  H27  1  0.687247  0.975153  0.201136  1
  H  H28  1  0.292962  0.515629  0.733830  1
  H  H29  1  0.238049  0.724570  0.061364  1
  H  H30  1  0.610859  0.647891  0.019724  1
  H  H31  1  0.346353  0.671412  0.891554  1
  H  H32  1  0.398021  0.982455  0.336998  1
  H  H33  1  0.338109  0.964520  0.157691  1
  H  H34  1  0.468616  0.693484  0.607244  1
  O  O35  1  0.008688  0.353499  0.000814  1
  O  O36  1  0.603627  0.288264  0.954493  1
  O  O37  1  0.018981  0.400307  0.288811  1
  O  O38  1  0.635251  0.287788  0.278757  1
  Ti  Ti39  1  0.301204  0.340036  0.131196  1
 
# Source:                            Huan_etal:SciDat(submitted)                                                     
# Class:                             organometallic_polymer_crystal                                                  
# Label:                             Ti-based_polymer                                                                
# Structure prediction method used:  minima-hopping                                                                  
# Number of atoms:                    39
# Number of atom types:                4
# Atom types:                         C  H  O Ti
# Dielectric constant, electronic:   3.05680E+00
# Dielectric constant, ionic:        1.76672E+00
# Dielectric constant, total:        4.82352E+00
# Band gap at the GGA level (eV):    1.56300E+00
# Band gap at the HSE06 level (eV):  3.14180E+00
# Atomization energy (eV/atom):     -5.42862E+00
# Volume of the unit cell (A^3):     3.04588E+02
