# generated using pymatgen
data_TiH24C13O4
_symmetry_space_group_name_H-M   'P 1'
_cell_length_a   4.86223628
_cell_length_b   7.08385163
_cell_length_c   9.86259900
_cell_angle_alpha   72.04171699
_cell_angle_beta   84.87510751
_cell_angle_gamma   89.17127340
_symmetry_Int_Tables_number   1
_chemical_formula_structural   TiH24C13O4
_chemical_formula_sum   'Ti1 H24 C13 O4'
_cell_volume   321.828736065
_cell_formula_units_Z   1
loop_
 _symmetry_equiv_pos_site_id
 _symmetry_equiv_pos_as_xyz
  1  'x, y, z'
loop_
 _atom_site_type_symbol
 _atom_site_label
 _atom_site_symmetry_multiplicity
 _atom_site_fract_x
 _atom_site_fract_y
 _atom_site_fract_z
 _atom_site_occupancy
  C  C1  1  0.027835  0.875852  0.815327  1
  C  C2  1  0.814811  0.403473  0.177654  1
  C  C3  1  0.523972  0.428674  0.883123  1
  C  C4  1  0.481925  0.824854  0.104176  1
  C  C5  1  0.311859  0.908813  0.426365  1
  C  C6  1  0.159107  0.887582  0.301713  1
  C  C7  1  0.329684  0.981746  0.154908  1
  C  C8  1  0.520764  0.184439  0.508602  1
  C  C9  1  0.287946  0.120838  0.437098  1
  C  C10  1  0.490210  0.401412  0.509061  1
  C  C11  1  0.735573  0.486843  0.560895  1
  C  C12  1  0.846749  0.346423  0.695726  1
  C  C13  1  0.632564  0.266400  0.825414  1
  H  H14  1  0.939720  0.219398  0.670631  1
  H  H15  1  0.009913  0.421315  0.729277  1
  H  H16  1  0.735746  0.161490  0.911752  1
  H  H17  1  0.460783  0.187300  0.802210  1
  H  H18  1  0.303701  0.412760  0.575690  1
  H  H19  1  0.676990  0.628041  0.578980  1
  H  H20  1  0.905749  0.521867  0.476147  1
  H  H21  1  0.525278  0.083129  0.617866  1
  H  H22  1  0.089717  0.133180  0.494872  1
  H  H23  1  0.282631  0.226371  0.329551  1
  H  H24  1  0.457422  0.495140  0.400329  1
  H  H25  1  0.716783  0.167322  0.450625  1
  H  H26  1  0.190174  0.053323  0.073335  1
  H  H27  1  0.476365  0.093342  0.161099  1
  H  H28  1  0.114473  0.732278  0.314175  1
  H  H29  1  0.958717  0.960148  0.300880  1
  H  H30  1  0.878589  0.261802  0.161499  1
  H  H31  1  0.228662  0.801139  0.527358  1
  H  H32  1  0.109487  0.000360  0.843489  1
  H  H33  1  0.181270  0.833176  0.741479  1
  H  H34  1  0.834083  0.913388  0.766484  1
  H  H35  1  0.908383  0.419297  0.270464  1
  H  H36  1  0.591487  0.408626  0.193469  1
  H  H37  1  0.530058  0.872177  0.410253  1
  O  O38  1  0.690861  0.554079  0.897763  1
  O  O39  1  0.258675  0.434775  0.915425  1
  O  O40  1  0.740165  0.819136  0.085275  1
  O  O41  1  0.319076  0.692593  0.081828  1
  Ti  Ti42  1  0.023995  0.614351  0.996024  1
 
# Source:                            Huan_etal:SciDat(submitted)                                                     
# Class:                             organometallic_polymer_crystal                                                  
# Label:                             Ti-based_polymer                                                                
# Structure prediction method used:  minima-hopping                                                                  
# Number of atoms:                    42
# Number of atom types:                4
# Atom types:                         C  H  O Ti
# Dielectric constant, electronic:   3.05887E+00
# Dielectric constant, ionic:        1.25593E+00
# Dielectric constant, total:        4.31480E+00
# Band gap at the GGA level (eV):    1.61900E+00
# Band gap at the HSE06 level (eV):  3.19820E+00
# Atomization energy (eV/atom):     -5.40674E+00
# Volume of the unit cell (A^3):     3.21829E+02
