# generated using pymatgen
data_TiH26(C7O2)2
_symmetry_space_group_name_H-M   'P 1'
_cell_length_a   4.83066561
_cell_length_b   7.46663638
_cell_length_c   9.92513525
_cell_angle_alpha   75.22469453
_cell_angle_beta   88.53809038
_cell_angle_gamma   76.94848283
_symmetry_Int_Tables_number   1
_chemical_formula_structural   TiH26(C7O2)2
_chemical_formula_sum   'Ti1 H26 C14 O4'
_cell_volume   337.012925101
_cell_formula_units_Z   1
loop_
 _symmetry_equiv_pos_site_id
 _symmetry_equiv_pos_as_xyz
  1  'x, y, z'
loop_
 _atom_site_type_symbol
 _atom_site_label
 _atom_site_symmetry_multiplicity
 _atom_site_fract_x
 _atom_site_fract_y
 _atom_site_fract_z
 _atom_site_occupancy
  C  C1  1  0.535259  0.386966  0.967557  1
  C  C2  1  0.404931  0.387736  0.377181  1
  C  C3  1  0.011708  0.660898  0.118074  1
  C  C4  1  0.187995  0.073346  0.265825  1
  C  C5  1  0.530058  0.701394  0.602962  1
  C  C6  1  0.394274  0.893497  0.502392  1
  C  C7  1  0.318896  0.878111  0.355562  1
  C  C8  1  0.872636  0.257151  0.677111  1
  C  C9  1  0.986699  0.435327  0.668994  1
  C  C10  1  0.831787  0.617717  0.563625  1
  C  C11  1  0.065209  0.081646  0.774099  1
  C  C12  1  0.944775  0.901548  0.803386  1
  C  C13  1  0.718991  0.898340  0.915792  1
  C  C14  1  0.845332  0.862626  0.064364  1
  H  H15  1  0.566609  0.035083  0.893838  1
  H  H16  1  0.597746  0.791204  0.915734  1
  H  H17  1  0.672122  0.892282  0.133540  1
  H  H18  1  0.986801  0.957543  0.064880  1
  H  H19  1  0.105475  0.114417  0.872568  1
  H  H20  1  0.116270  0.772958  0.834184  1
  H  H21  1  0.849000  0.895868  0.706239  1
  H  H22  1  0.653379  0.276343  0.712033  1
  H  H23  1  0.954530  0.726373  0.554308  1
  H  H24  1  0.828244  0.590188  0.460314  1
  H  H25  1  0.985858  0.461963  0.772873  1
  H  H26  1  0.209896  0.401722  0.641636  1
  H  H27  1  0.272483  0.055983  0.726562  1
  H  H28  1  0.868565  0.233532  0.572489  1
  H  H29  1  0.509892  0.816493  0.307608  1
  H  H30  1  0.167259  0.788035  0.363360  1
  H  H31  1  0.199853  0.961780  0.544965  1
  H  H32  1  0.542181  0.987452  0.491603  1
  H  H33  1  0.174656  0.407731  0.376695  1
  H  H34  1  0.538191  0.722858  0.707727  1
  H  H35  1  0.325104  0.375568  0.938215  1
  H  H36  1  0.585076  0.517898  0.904995  1
  H  H37  1  0.697585  0.265005  0.953363  1
  H  H38  1  0.503302  0.256656  0.453760  1
  H  H39  1  0.466405  0.506499  0.403657  1
  H  H40  1  0.396444  0.600557  0.608849  1
  O  O41  1  0.868916  0.527971  0.158716  1
  O  O42  1  0.279036  0.625546  0.120108  1
  O  O43  1  0.914082  0.130557  0.267184  1
  O  O44  1  0.344804  0.175073  0.195176  1
  Ti  Ti45  1  0.605634  0.363351  0.184605  1
 
# Source:                            Huan_etal:SciDat(submitted)                                                     
# Class:                             organometallic_polymer_crystal                                                  
# Label:                             Ti-based_polymer                                                                
# Structure prediction method used:  minima-hopping                                                                  
# Number of atoms:                    45
# Number of atom types:                4
# Atom types:                         C  H  O Ti
# Dielectric constant, electronic:   3.07866E+00
# Dielectric constant, ionic:        1.27403E+00
# Dielectric constant, total:        4.35270E+00
# Band gap at the GGA level (eV):    1.65560E+00
# Band gap at the HSE06 level (eV):  3.24580E+00
# Atomization energy (eV/atom):     -5.39252E+00
# Volume of the unit cell (A^3):     3.37013E+02
