# generated using pymatgen
data_TiH12C7O4
_symmetry_space_group_name_H-M   'P 1'
_cell_length_a   4.92471995
_cell_length_b   6.11187649
_cell_length_c   6.68743944
_cell_angle_alpha   96.25483811
_cell_angle_beta   92.12948778
_cell_angle_gamma   95.33982121
_symmetry_Int_Tables_number   1
_chemical_formula_structural   TiH12C7O4
_chemical_formula_sum   'Ti1 H12 C7 O4'
_cell_volume   198.992937119
_cell_formula_units_Z   1
loop_
 _symmetry_equiv_pos_site_id
 _symmetry_equiv_pos_as_xyz
  1  'x, y, z'
loop_
 _atom_site_type_symbol
 _atom_site_label
 _atom_site_symmetry_multiplicity
 _atom_site_fract_x
 _atom_site_fract_y
 _atom_site_fract_z
 _atom_site_occupancy
  C  C1  1  0.076419  0.927440  0.778392  1
  C  C2  1  0.010633  0.386949  0.487928  1
  C  C3  1  0.648816  0.462965  0.939029  1
  C  C4  1  0.633532  0.831397  0.365761  1
  C  C5  1  0.505096  0.324737  0.081531  1
  C  C6  1  0.624646  0.104728  0.100874  1
  C  C7  1  0.471916  0.979317  0.255220  1
  H  H8  1  0.394147  0.093550  0.373613  1
  H  H9  1  0.288182  0.879123  0.189905  1
  H  H10  1  0.606018  0.003640  0.955682  1
  H  H11  1  0.841218  0.134637  0.144416  1
  H  H12  1  0.516651  0.423588  0.228910  1
  H  H13  1  0.288951  0.301874  0.032926  1
  H  H14  1  0.270116  0.932381  0.704608  1
  H  H15  1  0.975810  0.076323  0.761396  1
  H  H16  1  0.104752  0.906144  0.937374  1
  H  H17  1  0.049444  0.422090  0.334659  1
  H  H18  1  0.201616  0.373242  0.572135  1
  H  H19  1  0.876563  0.234622  0.489590  1
  O  O20  1  0.518930  0.601412  0.847559  1
  O  O21  1  0.899563  0.450255  0.894521  1
  O  O22  1  0.501104  0.707108  0.485782  1
  O  O23  1  0.890173  0.823572  0.364230  1
  Ti  Ti24  1  0.836025  0.647758  0.649317  1
 
# Source:                            Huan_etal:SciDat(submitted)                                                     
# Class:                             organometallic_polymer_crystal                                                  
# Label:                             Ti-based_polymer                                                                
# Structure prediction method used:  minima-hopping                                                                  
# Number of atoms:                    24
# Number of atom types:                4
# Atom types:                         C  H  O Ti
# Dielectric constant, electronic:   3.02868E+00
# Dielectric constant, ionic:        8.96014E-01
# Dielectric constant, total:        3.92470E+00
# Band gap at the GGA level (eV):    2.38110E+00
# Band gap at the HSE06 level (eV):  4.21290E+00
# Atomization energy (eV/atom):     -5.59003E+00
# Volume of the unit cell (A^3):     1.98993E+02
