# generated using pymatgen
data_TiH22(C3O)4
_symmetry_space_group_name_H-M   'P 1'
_cell_length_a   4.84630307
_cell_length_b   6.68626422
_cell_length_c   10.07232938
_cell_angle_alpha   73.29669676
_cell_angle_beta   79.76372611
_cell_angle_gamma   89.46234913
_symmetry_Int_Tables_number   1
_chemical_formula_structural   TiH22(C3O)4
_chemical_formula_sum   'Ti1 H22 C12 O4'
_cell_volume   307.332242929
_cell_formula_units_Z   1
loop_
 _symmetry_equiv_pos_site_id
 _symmetry_equiv_pos_as_xyz
  1  'x, y, z'
loop_
 _atom_site_type_symbol
 _atom_site_label
 _atom_site_symmetry_multiplicity
 _atom_site_fract_x
 _atom_site_fract_y
 _atom_site_fract_z
 _atom_site_occupancy
  C  C1  1  0.443392  0.471644  0.943544  1
  C  C2  1  0.295196  0.098583  0.300776  1
  C  C3  1  0.772600  0.018508  0.016143  1
  C  C4  1  0.752496  0.545093  0.240787  1
  C  C5  1  0.884340  0.682474  0.569583  1
  C  C6  1  0.866110  0.541643  0.474178  1
  C  C7  1  0.872598  0.672578  0.318136  1
  C  C8  1  0.676648  0.062677  0.727556  1
  C  C9  1  0.646520  0.031898  0.585435  1
  C  C10  1  0.610843  0.801035  0.588899  1
  C  C11  1  0.964153  0.009000  0.771645  1
  C  C12  1  0.934027  0.891466  0.931181  1
  H  H13  1  0.097644  0.151406  0.746380  1
  H  H14  1  0.075539  0.907483  0.714488  1
  H  H15  1  0.138759  0.866537  0.962364  1
  H  H16  1  0.823320  0.741630  0.951891  1
  H  H17  1  0.471222  0.715144  0.686492  1
  H  H18  1  0.499551  0.797637  0.504453  1
  H  H19  1  0.460813  0.113283  0.554259  1
  H  H20  1  0.824445  0.106709  0.502859  1
  H  H21  1  0.512706  0.964903  0.807901  1
  H  H22  1  0.631003  0.223556  0.727840  1
  H  H23  1  0.747021  0.809451  0.314760  1
  H  H24  1  0.088038  0.722091  0.266052  1
  H  H25  1  0.038940  0.434496  0.477134  1
  H  H26  1  0.669157  0.447149  0.513018  1
  H  H27  1  0.097551  0.099058  0.263546  1
  H  H28  1  0.928237  0.586370  0.671529  1
  H  H29  1  0.258263  0.397642  0.926638  1
  H  H30  1  0.400895  0.629046  0.950875  1
  H  H31  1  0.622903  0.475592  0.859249  1
  H  H32  1  0.370627  0.940385  0.325011  1
  H  H33  1  0.270256  0.159042  0.391677  1
  H  H34  1  0.062933  0.793447  0.522309  1
  O  O35  1  0.912121  0.150112  0.056289  1
  O  O36  1  0.505770  0.018221  0.046306  1
  O  O37  1  0.912393  0.436415  0.173142  1
  O  O38  1  0.487697  0.528609  0.240442  1
  Ti  Ti39  1  0.569372  0.293787  0.129074  1
 
# Source:                            Huan_etal:SciDat(submitted)                                                     
# Class:                             organometallic_polymer_crystal                                                  
# Label:                             Ti-based_polymer                                                                
# Structure prediction method used:  minima-hopping                                                                  
# Number of atoms:                    39
# Number of atom types:                4
# Atom types:                         C  H  O Ti
# Dielectric constant, electronic:   2.86878E+00
# Dielectric constant, ionic:        6.27401E-01
# Dielectric constant, total:        3.49619E+00
# Band gap at the GGA level (eV):    2.39670E+00
# Band gap at the HSE06 level (eV):  4.22190E+00
# Atomization energy (eV/atom):     -5.41061E+00
# Volume of the unit cell (A^3):     3.07332E+02
