# generated using pymatgen
data_TiH24C13O4
_symmetry_space_group_name_H-M   'P 1'
_cell_length_a   4.72269641
_cell_length_b   6.99015165
_cell_length_c   10.49941872
_cell_angle_alpha   106.80116165
_cell_angle_beta   96.98413857
_cell_angle_gamma   93.18793246
_symmetry_Int_Tables_number   1
_chemical_formula_structural   TiH24C13O4
_chemical_formula_sum   'Ti1 H24 C13 O4'
_cell_volume   327.847199127
_cell_formula_units_Z   1
loop_
 _symmetry_equiv_pos_site_id
 _symmetry_equiv_pos_as_xyz
  1  'x, y, z'
loop_
 _atom_site_type_symbol
 _atom_site_label
 _atom_site_symmetry_multiplicity
 _atom_site_fract_x
 _atom_site_fract_y
 _atom_site_fract_z
 _atom_site_occupancy
  C  C1  1  0.325133  0.572072  0.067414  1
  C  C2  1  0.199931  0.602834  0.711543  1
  C  C3  1  0.739311  0.930941  0.974115  1
  C  C4  1  0.558076  0.233791  0.781992  1
  C  C5  1  0.793372  0.857718  0.474845  1
  C  C6  1  0.704037  0.058655  0.558466  1
  C  C7  1  0.656894  0.044545  0.699375  1
  C  C8  1  0.910209  0.194946  0.289549  1
  C  C9  1  0.641941  0.479767  0.422078  1
  C  C10  1  0.089880  0.125675  0.174945  1
  C  C11  1  0.930938  0.120547  0.035142  1
  C  C12  1  0.832634  0.411576  0.312118  1
  C  C13  1  0.544463  0.689490  0.434072  1
  H  H14  1  0.396255  0.721313  0.507889  1
  H  H15  1  0.420699  0.690841  0.339096  1
  H  H16  1  0.029954  0.512635  0.336783  1
  H  H17  1  0.722320  0.428037  0.218641  1
  H  H18  1  0.160656  0.977502  0.169810  1
  H  H19  1  0.283800  0.228450  0.194953  1
  H  H20  1  0.088560  0.125363  0.968060  1
  H  H21  1  0.806049  0.248714  0.042924  1
  H  H22  1  0.758471  0.480683  0.519057  1
  H  H23  1  0.454157  0.370518  0.402134  1
  H  H24  1  0.032560  0.183069  0.382268  1
  H  H25  1  0.713563  0.092657  0.269820  1
  H  H26  1  0.497953  0.920989  0.690488  1
  H  H27  1  0.862334  0.020342  0.749544  1
  H  H28  1  0.870758  0.180591  0.572101  1
  H  H29  1  0.506599  0.095993  0.507517  1
  H  H30  1  0.996897  0.518658  0.707963  1
  H  H31  1  0.875746  0.874720  0.385201  1
  H  H32  1  0.098853  0.591798  0.072325  1
  H  H33  1  0.372473  0.425992  0.078398  1
  H  H34  1  0.459731  0.692093  0.146287  1
  H  H35  1  0.165199  0.756668  0.713801  1
  H  H36  1  0.305593  0.527650  0.625678  1
  H  H37  1  0.972066  0.816234  0.535080  1
  O  O38  1  0.848212  0.762685  0.925821  1
  O  O39  1  0.465206  0.918136  0.967906  1
  O  O40  1  0.745945  0.387568  0.843154  1
  O  O41  1  0.296212  0.261472  0.792178  1
  Ti  Ti42  1  0.455169  0.591913  0.887217  1
 
# Source:                            Huan_etal:SciDat(submitted)                                                     
# Class:                             organometallic_polymer_crystal                                                  
# Label:                             Ti-based_polymer                                                                
# Structure prediction method used:  minima-hopping                                                                  
# Number of atoms:                    42
# Number of atom types:                4
# Atom types:                         C  H  O Ti
# Dielectric constant, electronic:   2.85770E+00
# Dielectric constant, ionic:        6.98865E-01
# Dielectric constant, total:        3.55656E+00
# Band gap at the GGA level (eV):    2.37050E+00
# Band gap at the HSE06 level (eV):  4.18890E+00
# Atomization energy (eV/atom):     -5.39764E+00
# Volume of the unit cell (A^3):     3.27847E+02
