# generated using pymatgen
data_TiH26(C7O2)2
_symmetry_space_group_name_H-M   'P 1'
_cell_length_a   4.92787321
_cell_length_b   6.80888366
_cell_length_c   10.84733110
_cell_angle_alpha   105.24870489
_cell_angle_beta   96.06136288
_cell_angle_gamma   90.59356881
_symmetry_Int_Tables_number   1
_chemical_formula_structural   TiH26(C7O2)2
_chemical_formula_sum   'Ti1 H26 C14 O4'
_cell_volume   348.91088185
_cell_formula_units_Z   1
loop_
 _symmetry_equiv_pos_site_id
 _symmetry_equiv_pos_as_xyz
  1  'x, y, z'
loop_
 _atom_site_type_symbol
 _atom_site_label
 _atom_site_symmetry_multiplicity
 _atom_site_fract_x
 _atom_site_fract_y
 _atom_site_fract_z
 _atom_site_occupancy
  C  C1  1  0.345987  0.564949  0.050511  1
  C  C2  1  0.258235  0.636592  0.719803  1
  C  C3  1  0.730994  0.946772  0.977683  1
  C  C4  1  0.649018  0.245726  0.786613  1
  C  C5  1  0.763746  0.856231  0.483453  1
  C  C6  1  0.826844  0.066322  0.579776  1
  C  C7  1  0.768739  0.054141  0.716343  1
  C  C8  1  0.850219  0.158971  0.281065  1
  C  C9  1  0.535667  0.420879  0.405536  1
  C  C10  1  0.341144  0.593830  0.395777  1
  C  C11  1  0.042812  0.114285  0.175548  1
  C  C12  1  0.911333  0.130051  0.042081  1
  C  C13  1  0.702009  0.358596  0.290542  1
  C  C14  1  0.452975  0.818198  0.449659  1
  H  H15  1  0.356342  0.885205  0.536632  1
  H  H16  1  0.382642  0.906245  0.381542  1
  H  H17  1  0.846298  0.482248  0.291474  1
  H  H18  1  0.562086  0.340378  0.203278  1
  H  H19  1  0.130452  0.964462  0.165517  1
  H  H20  1  0.213015  0.225400  0.202985  1
  H  H21  1  0.074722  0.133515  0.982196  1
  H  H22  1  0.797806  0.268596  0.051428  1
  H  H23  1  0.262051  0.569627  0.294636  1
  H  H24  1  0.166287  0.575997  0.446040  1
  H  H25  1  0.672102  0.461509  0.495917  1
  H  H26  1  0.411978  0.287855  0.409238  1
  H  H27  1  0.971308  0.164611  0.372794  1
  H  H28  1  0.696682  0.033572  0.263974  1
  H  H29  1  0.625662  0.927291  0.708556  1
  H  H30  1  0.960289  0.031903  0.770059  1
  H  H31  1  0.039149  0.119307  0.585156  1
  H  H32  1  0.698367  0.178845  0.549661  1
  H  H33  1  0.058905  0.562136  0.715744  1
  H  H34  1  0.863886  0.844122  0.396566  1
  H  H35  1  0.138300  0.619266  0.052521  1
  H  H36  1  0.346180  0.403918  0.048707  1
  H  H37  1  0.480699  0.656197  0.133334  1
  H  H38  1  0.236935  0.796642  0.721378  1
  H  H39  1  0.363304  0.556012  0.638232  1
  H  H40  1  0.851436  0.741473  0.528240  1
  O  O41  1  0.845403  0.781771  0.918338  1
  O  O42  1  0.472173  0.932843  0.979352  1
  O  O43  1  0.809882  0.402577  0.846037  1
  O  O44  1  0.391876  0.272328  0.787621  1
  Ti  Ti45  1  0.497553  0.599856  0.883713  1
 
# Source:                            Huan_etal:SciDat(submitted)                                                     
# Class:                             organometallic_polymer_crystal                                                  
# Label:                             Ti-based_polymer                                                                
# Structure prediction method used:  minima-hopping                                                                  
# Number of atoms:                    45
# Number of atom types:                4
# Atom types:                         C  H  O Ti
# Dielectric constant, electronic:   2.82486E+00
# Dielectric constant, ionic:        9.66680E-01
# Dielectric constant, total:        3.79154E+00
# Band gap at the GGA level (eV):    2.39390E+00
# Band gap at the HSE06 level (eV):  4.22150E+00
# Atomization energy (eV/atom):     -5.37383E+00
# Volume of the unit cell (A^3):     3.48911E+02
