# generated using pymatgen
data_CaH2C3O4
_symmetry_space_group_name_H-M   'P 1'
_cell_length_a   4.16354065
_cell_length_b   6.44351178
_cell_length_c   7.39534707
_cell_angle_alpha   87.64113928
_cell_angle_beta   82.85853600
_cell_angle_gamma   83.42499692
_symmetry_Int_Tables_number   1
_chemical_formula_structural   CaH2C3O4
_chemical_formula_sum   'Ca2 H4 C6 O8'
_cell_volume   195.494155116
_cell_formula_units_Z   2
loop_
 _symmetry_equiv_pos_site_id
 _symmetry_equiv_pos_as_xyz
  1  'x, y, z'
loop_
 _atom_site_type_symbol
 _atom_site_label
 _atom_site_symmetry_multiplicity
 _atom_site_fract_x
 _atom_site_fract_y
 _atom_site_fract_z
 _atom_site_occupancy
  Ca  Ca1  1  0.931565  0.909151  0.511603  1
  Ca  Ca2  1  0.931562  0.909150  0.011604  1
  O  O3  1  0.690565  0.588314  0.093313  1
  O  O4  1  0.690560  0.588314  0.593316  1
  O  O5  1  0.392775  0.089720  0.469897  1
  O  O6  1  0.392779  0.089718  0.969895  1
  O  O7  1  0.786599  0.144911  0.249012  1
  O  O8  1  0.786592  0.144910  0.749015  1
  O  O9  1  0.249893  0.764555  0.246550  1
  O  O10  1  0.249895  0.764555  0.746549  1
  C  C11  1  0.434643  0.592346  0.205994  1
  C  C12  1  0.434640  0.592343  0.705997  1
  C  C13  1  0.508360  0.203295  0.336461  1
  C  C14  1  0.508353  0.203296  0.836461  1
  C  C15  1  0.298039  0.398953  0.290598  1
  C  C16  1  0.298041  0.398953  0.790597  1
  H  H17  1  0.144914  0.351362  0.192775  1
  H  H18  1  0.144915  0.351362  0.692777  1
  H  H19  1  0.125893  0.441512  0.409744  1
  H  H20  1  0.125898  0.441509  0.909740  1
 
# Source:                            Huan_etal:SciDat(submitted)                                                     
# Class:                             organometallic_polymer_crystal                                                  
# Label:                             Ca-based_polymer                                                                
# Structure prediction method used:  minima-hopping                                                                  
# Number of atoms:                    20
# Number of atom types:                4
# Atom types:                        Ca  O  C  H
# Dielectric constant, electronic:   2.90074E+00
# Dielectric constant, ionic:        2.64988E+00
# Dielectric constant, total:        5.55061E+00
# Band gap at the GGA level (eV):    4.64010E+00
# Band gap at the HSE06 level (eV):  6.57080E+00
# Atomization energy (eV/atom):     -6.51177E+00
# Volume of the unit cell (A^3):     1.95494E+02
