# generated using pymatgen
data_CaH2C3O4
_symmetry_space_group_name_H-M   'P 1'
_cell_length_a   3.72247108
_cell_length_b   6.02405358
_cell_length_c   9.68978371
_cell_angle_alpha   90.92904654
_cell_angle_beta   95.84270583
_cell_angle_gamma   106.56176974
_symmetry_Int_Tables_number   1
_chemical_formula_structural   CaH2C3O4
_chemical_formula_sum   'Ca2 H4 C6 O8'
_cell_volume   206.957459888
_cell_formula_units_Z   2
loop_
 _symmetry_equiv_pos_site_id
 _symmetry_equiv_pos_as_xyz
  1  'x, y, z'
loop_
 _atom_site_type_symbol
 _atom_site_label
 _atom_site_symmetry_multiplicity
 _atom_site_fract_x
 _atom_site_fract_y
 _atom_site_fract_z
 _atom_site_occupancy
  Ca  Ca1  1  0.472054  0.859185  0.495291  1
  Ca  Ca2  1  0.975546  0.858179  0.996091  1
  O  O3  1  0.331381  0.638281  0.902380  1
  O  O4  1  0.828300  0.638610  0.402512  1
  O  O5  1  0.102682  0.097367  0.570260  1
  O  O6  1  0.606717  0.097698  0.069880  1
  O  O7  1  0.919122  0.019391  0.781945  1
  O  O8  1  0.415149  0.018752  0.280309  1
  O  O9  1  0.228822  0.640583  0.669324  1
  O  O10  1  0.725716  0.639435  0.169386  1
  C  C11  1  0.333642  0.556339  0.778959  1
  C  C12  1  0.830615  0.555886  0.279278  1
  C  C13  1  0.144868  0.138084  0.703570  1
  C  C14  1  0.644291  0.137972  0.203054  1
  C  C15  1  0.469544  0.341889  0.764129  1
  C  C16  1  0.967132  0.341605  0.264975  1
  H  H17  1  0.589927  0.301347  0.864306  1
  H  H18  1  0.085440  0.300701  0.365419  1
  H  H19  1  0.674147  0.381964  0.689119  1
  H  H20  1  0.173744  0.382253  0.190752  1
 
# Source:                            Huan_etal:SciDat(submitted)                                                     
# Class:                             organometallic_polymer_crystal                                                  
# Label:                             Ca-based_polymer                                                                
# Structure prediction method used:  minima-hopping                                                                  
# Number of atoms:                    20
# Number of atom types:                4
# Atom types:                        Ca  O  C  H
# Dielectric constant, electronic:   2.77016E+00
# Dielectric constant, ionic:        3.72625E+00
# Dielectric constant, total:        6.49641E+00
# Band gap at the GGA level (eV):    3.83560E+00
# Band gap at the HSE06 level (eV):  5.73740E+00
# Atomization energy (eV/atom):     -6.50056E+00
# Volume of the unit cell (A^3):     2.06957E+02
