# generated using pymatgen
data_CaH8(C3O2)2
_symmetry_space_group_name_H-M   'P 1'
_cell_length_a   3.62871536
_cell_length_b   4.48297915
_cell_length_c   10.13311222
_cell_angle_alpha   90.91138789
_cell_angle_beta   95.08634918
_cell_angle_gamma   103.97313122
_symmetry_Int_Tables_number   1
_chemical_formula_structural   CaH8(C3O2)2
_chemical_formula_sum   'Ca1 H8 C6 O4'
_cell_volume   159.213520028
_cell_formula_units_Z   1
loop_
 _symmetry_equiv_pos_site_id
 _symmetry_equiv_pos_as_xyz
  1  'x, y, z'
loop_
 _atom_site_type_symbol
 _atom_site_label
 _atom_site_symmetry_multiplicity
 _atom_site_fract_x
 _atom_site_fract_y
 _atom_site_fract_z
 _atom_site_occupancy
  Ca  Ca1  1  0.010753  0.039953  0.212956  1
  O  O2  1  0.934738  0.765476  0.408682  1
  O  O3  1  0.087720  0.314351  0.017254  1
  O  O4  1  0.401377  0.764795  0.119154  1
  O  O5  1  0.620199  0.315367  0.306691  1
  C  C6  1  0.719351  0.498766  0.411600  1
  C  C7  1  0.303646  0.580872  0.014383  1
  C  C8  1  0.580884  0.373038  0.540999  1
  C  C9  1  0.574233  0.614240  0.648547  1
  C  C10  1  0.449959  0.464487  0.777583  1
  C  C11  1  0.444607  0.705882  0.885197  1
  H  H12  1  0.257574  0.853069  0.850534  1
  H  H13  1  0.724400  0.864430  0.906891  1
  H  H14  1  0.167370  0.307214  0.758929  1
  H  H15  1  0.643039  0.324755  0.813683  1
  H  H16  1  0.770339  0.227623  0.575484  1
  H  H17  1  0.302109  0.212833  0.519669  1
  H  H18  1  0.380663  0.753460  0.612309  1
  H  H19  1  0.856435  0.772077  0.667282  1
 
# Source:                            Huan_etal:SciDat(submitted)                                                     
# Class:                             organometallic_polymer_crystal                                                  
# Label:                             Ca-based_polymer                                                                
# Structure prediction method used:  minima-hopping                                                                  
# Number of atoms:                    19
# Number of atom types:                4
# Atom types:                        Ca  O  C  H
# Dielectric constant, electronic:   2.76904E+00
# Dielectric constant, ionic:        2.17947E+00
# Dielectric constant, total:        4.94851E+00
# Band gap at the GGA level (eV):    4.81950E+00
# Band gap at the HSE06 level (eV):  6.81310E+00
# Atomization energy (eV/atom):     -5.87762E+00
# Volume of the unit cell (A^3):     1.59214E+02
