# generated using pymatgen
data_CaH10C7O4
_symmetry_space_group_name_H-M   'P 1'
_cell_length_a   4.23376091
_cell_length_b   7.47049290
_cell_length_c   11.32302304
_cell_angle_alpha   97.32135861
_cell_angle_beta   93.56624228
_cell_angle_gamma   97.82308091
_symmetry_Int_Tables_number   1
_chemical_formula_structural   CaH10C7O4
_chemical_formula_sum   'Ca2 H20 C14 O8'
_cell_volume   350.747007636
_cell_formula_units_Z   2
loop_
 _symmetry_equiv_pos_site_id
 _symmetry_equiv_pos_as_xyz
  1  'x, y, z'
loop_
 _atom_site_type_symbol
 _atom_site_label
 _atom_site_symmetry_multiplicity
 _atom_site_fract_x
 _atom_site_fract_y
 _atom_site_fract_z
 _atom_site_occupancy
  Ca  Ca1  1  0.931210  0.501884  0.817891  1
  Ca  Ca2  1  0.931211  0.001884  0.817890  1
  O  O3  1  0.191673  0.042802  0.638339  1
  O  O4  1  0.191670  0.542801  0.638340  1
  O  O5  1  0.465596  0.484790  0.921915  1
  O  O6  1  0.465597  0.984789  0.921915  1
  O  O7  1  0.064472  0.275215  0.951504  1
  O  O8  1  0.064469  0.775216  0.951504  1
  O  O9  1  0.634068  0.215130  0.733535  1
  O  O10  1  0.634067  0.715130  0.733534  1
  C  C11  1  0.450141  0.150776  0.637182  1
  C  C12  1  0.450137  0.650776  0.637182  1
  C  C13  1  0.339854  0.368886  0.985771  1
  C  C14  1  0.339851  0.868886  0.985772  1
  C  C15  1  0.575820  0.200476  0.521547  1
  C  C16  1  0.575812  0.700476  0.521547  1
  C  C17  1  0.335398  0.211185  0.416947  1
  C  C18  1  0.335388  0.711184  0.416947  1
  C  C19  1  0.517311  0.262832  0.310270  1
  C  C20  1  0.517301  0.762831  0.310270  1
  C  C21  1  0.307089  0.282634  0.198828  1
  C  C22  1  0.307080  0.782633  0.198828  1
  C  C23  1  0.515242  0.345224  0.101566  1
  C  C24  1  0.515237  0.845224  0.101567  1
  H  H25  1  0.674405  0.245795  0.076621  1
  H  H26  1  0.674401  0.745797  0.076622  1
  H  H27  1  0.671656  0.972950  0.134536  1
  H  H28  1  0.671663  0.472949  0.134535  1
  H  H29  1  0.143476  0.380501  0.222302  1
  H  H30  1  0.143466  0.880500  0.222301  1
  H  H31  1  0.156803  0.152867  0.164508  1
  H  H32  1  0.156795  0.652866  0.164507  1
  H  H33  1  0.677019  0.391708  0.338587  1
  H  H34  1  0.677010  0.891707  0.338587  1
  H  H35  1  0.675858  0.161919  0.286631  1
  H  H36  1  0.675847  0.661918  0.286631  1
  H  H37  1  0.729992  0.597938  0.495614  1
  H  H38  1  0.729999  0.097938  0.495615  1
  H  H39  1  0.739576  0.328390  0.542657  1
  H  H40  1  0.739569  0.828389  0.542656  1
  H  H41  1  0.182916  0.313409  0.443875  1
  H  H42  1  0.182908  0.813409  0.443876  1
  H  H43  1  0.178744  0.080834  0.392206  1
  H  H44  1  0.178735  0.580833  0.392207  1
 
# Source:                            Huan_etal:SciDat(submitted)                                                     
# Class:                             organometallic_polymer_crystal                                                  
# Label:                             Ca-based_polymer                                                                
# Structure prediction method used:  minima-hopping                                                                  
# Number of atoms:                    44
# Number of atom types:                4
# Atom types:                        Ca  O  C  H
# Dielectric constant, electronic:   2.80172E+00
# Dielectric constant, ionic:        1.62708E+00
# Dielectric constant, total:        4.42880E+00
# Band gap at the GGA level (eV):    4.84760E+00
# Band gap at the HSE06 level (eV):  6.79950E+00
# Atomization energy (eV/atom):     -5.77517E+00
# Volume of the unit cell (A^3):     3.50747E+02
