# generated using pymatgen
data_CaH10C7O4
_symmetry_space_group_name_H-M   'P 1'
_cell_length_a   4.18790715
_cell_length_b   7.40895184
_cell_length_c   11.40873873
_cell_angle_alpha   98.03403260
_cell_angle_beta   93.63020127
_cell_angle_gamma   93.47388042
_symmetry_Int_Tables_number   1
_chemical_formula_structural   CaH10C7O4
_chemical_formula_sum   'Ca2 H20 C14 O8'
_cell_volume   348.947940332
_cell_formula_units_Z   2
loop_
 _symmetry_equiv_pos_site_id
 _symmetry_equiv_pos_as_xyz
  1  'x, y, z'
loop_
 _atom_site_type_symbol
 _atom_site_label
 _atom_site_symmetry_multiplicity
 _atom_site_fract_x
 _atom_site_fract_y
 _atom_site_fract_z
 _atom_site_occupancy
  Ca  Ca1  1  0.931124  0.492352  0.816226  1
  Ca  Ca2  1  0.931206  0.992355  0.816199  1
  O  O3  1  0.198939  0.342110  0.656824  1
  O  O4  1  0.199055  0.842100  0.656794  1
  O  O5  1  0.470534  0.472391  0.924404  1
  O  O6  1  0.470612  0.972409  0.924382  1
  O  O7  1  0.073447  0.269301  0.946776  1
  O  O8  1  0.073543  0.769319  0.946769  1
  O  O9  1  0.604898  0.195357  0.730401  1
  O  O10  1  0.604997  0.695359  0.730391  1
  C  C11  1  0.432096  0.241153  0.642680  1
  C  C12  1  0.432219  0.741147  0.642661  1
  C  C13  1  0.344493  0.356552  0.984056  1
  C  C14  1  0.344599  0.856570  0.984040  1
  C  C15  1  0.541992  0.182804  0.519546  1
  C  C16  1  0.542179  0.682809  0.519534  1
  C  C17  1  0.318586  0.211435  0.413068  1
  C  C18  1  0.318819  0.711424  0.413044  1
  C  C19  1  0.509213  0.244681  0.306719  1
  C  C20  1  0.509459  0.744698  0.306703  1
  C  C21  1  0.303426  0.272666  0.195595  1
  C  C22  1  0.303634  0.772680  0.195584  1
  C  C23  1  0.515121  0.326128  0.099545  1
  C  C24  1  0.515288  0.826143  0.099521  1
  H  H25  1  0.676919  0.219425  0.075126  1
  H  H26  1  0.677073  0.719442  0.075094  1
  H  H27  1  0.669506  0.949097  0.132882  1
  H  H28  1  0.669333  0.449081  0.132915  1
  H  H29  1  0.138873  0.378882  0.219244  1
  H  H30  1  0.139094  0.878895  0.219244  1
  H  H31  1  0.152973  0.148178  0.161017  1
  H  H32  1  0.153183  0.648194  0.161015  1
  H  H33  1  0.674894  0.365860  0.334088  1
  H  H34  1  0.675111  0.865886  0.334080  1
  H  H35  1  0.662400  0.132149  0.284656  1
  H  H36  1  0.662677  0.632181  0.284636  1
  H  H37  1  0.609804  0.542053  0.514357  1
  H  H38  1  0.609567  0.042043  0.514362  1
  H  H39  1  0.769197  0.264135  0.519937  1
  H  H40  1  0.769377  0.764157  0.519939  1
  H  H41  1  0.180633  0.329455  0.438144  1
  H  H42  1  0.180813  0.829424  0.438111  1
  H  H43  1  0.143430  0.094143  0.388627  1
  H  H44  1  0.143692  0.594114  0.388589  1
 
# Source:                            Huan_etal:SciDat(submitted)                                                     
# Class:                             organometallic_polymer_crystal                                                  
# Label:                             Ca-based_polymer                                                                
# Structure prediction method used:  minima-hopping                                                                  
# Number of atoms:                    44
# Number of atom types:                4
# Atom types:                        Ca  O  C  H
# Dielectric constant, electronic:   2.81928E+00
# Dielectric constant, ionic:        2.52887E+00
# Dielectric constant, total:        5.34814E+00
# Band gap at the GGA level (eV):    4.64120E+00
# Band gap at the HSE06 level (eV):  6.57140E+00
# Atomization energy (eV/atom):     -5.76385E+00
# Volume of the unit cell (A^3):     3.48948E+02
