# generated using pymatgen
data_ZnH2C3O4
_symmetry_space_group_name_H-M   'P 1'
_cell_length_a   3.83057541
_cell_length_b   4.83121099
_cell_length_c   5.78509622
_cell_angle_alpha   78.93824803
_cell_angle_beta   70.68414514
_cell_angle_gamma   66.64764555
_symmetry_Int_Tables_number   1
_chemical_formula_structural   ZnH2C3O4
_chemical_formula_sum   'Zn1 H2 C3 O4'
_cell_volume   92.5297283035
_cell_formula_units_Z   1
loop_
 _symmetry_equiv_pos_site_id
 _symmetry_equiv_pos_as_xyz
  1  'x, y, z'
loop_
 _atom_site_type_symbol
 _atom_site_label
 _atom_site_symmetry_multiplicity
 _atom_site_fract_x
 _atom_site_fract_y
 _atom_site_fract_z
 _atom_site_occupancy
  C  C1  1  0.452522  0.505946  0.684033  1
  C  C2  1  0.549947  0.572346  0.897008  1
  C  C3  1  0.173194  0.638762  0.109977  1
  H  H4  1  0.782716  0.373102  0.944777  1
  H  H5  1  0.631104  0.771645  0.849315  1
  O  O6  1  0.290038  0.721411  0.543245  1
  O  O7  1  0.518576  0.228661  0.667534  1
  O  O8  1  0.085400  0.423299  0.250721  1
  O  O9  1  0.945527  0.916076  0.126404  1
  Zn  Zn10  1  0.451543  0.072284  0.396929  1
 
# Source:                            Huan_etal:SciDat(submitted)                                                     
# Class:                             organometallic_polymer_crystal                                                  
# Label:                             Zn-based_polymer                                                                
# Structure prediction method used:  minima-hopping                                                                  
# Number of atoms:                    10
# Number of atom types:                4
# Atom types:                         C  H  O Zn
# Dielectric constant, electronic:   3.05390E+00
# Dielectric constant, ionic:        2.83912E+00
# Dielectric constant, total:        5.89302E+00
# Band gap at the GGA level (eV):    3.85660E+00
# Band gap at the HSE06 level (eV):  5.67790E+00
# Atomization energy (eV/atom):     -5.94534E+00
# Volume of the unit cell (A^3):     9.25297E+01
