# generated using pymatgen
data_ZnH2C3O4
_symmetry_space_group_name_H-M   'P 1'
_cell_length_a   4.18288798
_cell_length_b   4.82749814
_cell_length_c   5.26091337
_cell_angle_alpha   78.99050971
_cell_angle_beta   66.58961368
_cell_angle_gamma   64.40497258
_symmetry_Int_Tables_number   1
_chemical_formula_structural   ZnH2C3O4
_chemical_formula_sum   'Zn1 H2 C3 O4'
_cell_volume   87.8976948459
_cell_formula_units_Z   1
loop_
 _symmetry_equiv_pos_site_id
 _symmetry_equiv_pos_as_xyz
  1  'x, y, z'
loop_
 _atom_site_type_symbol
 _atom_site_label
 _atom_site_symmetry_multiplicity
 _atom_site_fract_x
 _atom_site_fract_y
 _atom_site_fract_z
 _atom_site_occupancy
  C  C1  1  0.154298  0.183638  0.292168  1
  C  C2  1  0.301560  0.414974  0.107324  1
  C  C3  1  0.105812  0.647929  0.924658  1
  H  H4  1  0.337648  0.539165  0.240232  1
  H  H5  1  0.592334  0.288816  0.972355  1
  O  O6  1  0.403992  0.922160  0.328248  1
  O  O7  1  0.797133  0.259414  0.422292  1
  O  O8  1  0.129847  0.909742  0.889687  1
  O  O9  1  0.953587  0.572771  0.794590  1
  Zn  Zn10  1  0.634985  0.915826  0.608455  1
 
# Source:                            Huan_etal:SciDat(submitted)                                                     
# Class:                             organometallic_polymer_crystal                                                  
# Label:                             Zn-based_polymer                                                                
# Structure prediction method used:  minima-hopping                                                                  
# Number of atoms:                    10
# Number of atom types:                4
# Atom types:                         C  H  O Zn
# Dielectric constant, electronic:   3.27925E+00
# Dielectric constant, ionic:        2.89440E+00
# Dielectric constant, total:        6.17365E+00
# Band gap at the GGA level (eV):    3.93450E+00
# Band gap at the HSE06 level (eV):  5.94690E+00
# Atomization energy (eV/atom):     -5.88098E+00
# Volume of the unit cell (A^3):     8.78977E+01
