# generated using pymatgen
data_ZnH2C3O4
_symmetry_space_group_name_H-M   'P 1'
_cell_length_a   4.67074314
_cell_length_b   4.68620096
_cell_length_c   5.66128270
_cell_angle_alpha   89.31758653
_cell_angle_beta   69.16587679
_cell_angle_gamma   60.71630748
_symmetry_Int_Tables_number   1
_chemical_formula_structural   ZnH2C3O4
_chemical_formula_sum   'Zn1 H2 C3 O4'
_cell_volume   98.9961310917
_cell_formula_units_Z   1
loop_
 _symmetry_equiv_pos_site_id
 _symmetry_equiv_pos_as_xyz
  1  'x, y, z'
loop_
 _atom_site_type_symbol
 _atom_site_label
 _atom_site_symmetry_multiplicity
 _atom_site_fract_x
 _atom_site_fract_y
 _atom_site_fract_z
 _atom_site_occupancy
  C  C1  1  0.859928  0.641869  0.295618  1
  C  C2  1  0.225724  0.366378  0.100541  1
  C  C3  1  0.158487  0.233578  0.896247  1
  H  H4  1  0.402949  0.461791  0.021018  1
  H  H5  1  0.340746  0.169309  0.201903  1
  O  O6  1  0.597332  0.616358  0.300484  1
  O  O7  1  0.817033  0.877562  0.440557  1
  O  O8  1  0.167397  0.956630  0.909123  1
  O  O9  1  0.079475  0.396884  0.724510  1
  Zn  Zn10  1  0.149065  0.778203  0.608959  1
 
# Source:                            Huan_etal:SciDat(submitted)                                                     
# Class:                             organometallic_polymer_crystal                                                  
# Label:                             Zn-based_polymer                                                                
# Structure prediction method used:  minima-hopping                                                                  
# Number of atoms:                    10
# Number of atom types:                4
# Atom types:                         C  H  O Zn
# Dielectric constant, electronic:   2.89909E+00
# Dielectric constant, ionic:        2.14593E+00
# Dielectric constant, total:        5.04503E+00
# Band gap at the GGA level (eV):    4.36180E+00
# Band gap at the HSE06 level (eV):  6.38390E+00
# Atomization energy (eV/atom):     -5.93871E+00
# Volume of the unit cell (A^3):     9.89961E+01
