# generated using pymatgen
data_ZnH4(CO)4
_symmetry_space_group_name_H-M   'P 1'
_cell_length_a   3.40551658
_cell_length_b   4.41993395
_cell_length_c   7.53228401
_cell_angle_alpha   83.25480731
_cell_angle_beta   83.52853074
_cell_angle_gamma   72.69815522
_symmetry_Int_Tables_number   1
_chemical_formula_structural   ZnH4(CO)4
_chemical_formula_sum   'Zn1 H4 C4 O4'
_cell_volume   107.135414353
_cell_formula_units_Z   1
loop_
 _symmetry_equiv_pos_site_id
 _symmetry_equiv_pos_as_xyz
  1  'x, y, z'
loop_
 _atom_site_type_symbol
 _atom_site_label
 _atom_site_symmetry_multiplicity
 _atom_site_fract_x
 _atom_site_fract_y
 _atom_site_fract_z
 _atom_site_occupancy
  C  C1  1  0.694970  0.323631  0.483944  1
  C  C2  1  0.889899  0.207993  0.304461  1
  C  C3  1  0.766956  0.451345  0.145047  1
  C  C4  1  0.961626  0.335605  0.965556  1
  H  H5  1  0.222111  0.129142  0.311339  1
  H  H6  1  0.814318  0.988756  0.293060  1
  H  H7  1  0.842833  0.670484  0.156380  1
  H  H8  1  0.434720  0.530400  0.138237  1
  O  O9  1  0.743551  0.118412  0.622607  1
  O  O10  1  0.487694  0.614021  0.490521  1
  O  O11  1  0.913002  0.540747  0.826865  1
  O  O12  1  0.168826  0.045196  0.959002  1
  Zn  Zn13  1  0.328349  0.829621  0.724771  1
 
# Source:                            Huan_etal:SciDat(submitted)                                                     
# Class:                             organometallic_polymer_crystal                                                  
# Label:                             Zn-based_polymer                                                                
# Structure prediction method used:  minima-hopping                                                                  
# Number of atoms:                    13
# Number of atom types:                4
# Atom types:                         C  H  O Zn
# Dielectric constant, electronic:   3.13164E+00
# Dielectric constant, ionic:        4.03113E+00
# Dielectric constant, total:        7.16277E+00
# Band gap at the GGA level (eV):    3.81550E+00
# Band gap at the HSE06 level (eV):  5.78250E+00
# Atomization energy (eV/atom):     -5.75993E+00
# Volume of the unit cell (A^3):     1.07135E+02
