# generated using pymatgen
data_ZnH4(CO)4
_symmetry_space_group_name_H-M   'P 1'
_cell_length_a   3.62650837
_cell_length_b   4.22191373
_cell_length_c   7.34281260
_cell_angle_alpha   78.98716972
_cell_angle_beta   87.54985015
_cell_angle_gamma   76.30858917
_symmetry_Int_Tables_number   1
_chemical_formula_structural   ZnH4(CO)4
_chemical_formula_sum   'Zn1 H4 C4 O4'
_cell_volume   107.217906337
_cell_formula_units_Z   1
loop_
 _symmetry_equiv_pos_site_id
 _symmetry_equiv_pos_as_xyz
  1  'x, y, z'
loop_
 _atom_site_type_symbol
 _atom_site_label
 _atom_site_symmetry_multiplicity
 _atom_site_fract_x
 _atom_site_fract_y
 _atom_site_fract_z
 _atom_site_occupancy
  C  C1  1  0.454070  0.323997  0.525168  1
  C  C2  1  0.220071  0.339475  0.699862  1
  C  C3  1  0.432336  0.409487  0.859895  1
  C  C4  1  0.198213  0.425022  0.034545  1
  H  H5  1  0.970202  0.539569  0.665935  1
  H  H6  1  0.141213  0.103363  0.742282  1
  H  H7  1  0.511212  0.645587  0.817476  1
  H  H8  1  0.682197  0.209393  0.893832  1
  O  O9  1  0.395830  0.580227  0.394110  1
  O  O10  1  0.700968  0.055930  0.515583  1
  O  O11  1  0.256189  0.168811  0.165610  1
  O  O12  1  0.951377  0.693124  0.044079  1
  Zn  Zn13  1  0.825554  0.874455  0.279808  1
 
# Source:                            Huan_etal:SciDat(submitted)                                                     
# Class:                             organometallic_polymer_crystal                                                  
# Label:                             Zn-based_polymer                                                                
# Structure prediction method used:  minima-hopping                                                                  
# Number of atoms:                    13
# Number of atom types:                4
# Atom types:                         C  H  O Zn
# Dielectric constant, electronic:   3.19009E+00
# Dielectric constant, ionic:        6.96983E+00
# Dielectric constant, total:        1.01599E+01
# Band gap at the GGA level (eV):    3.61610E+00
# Band gap at the HSE06 level (eV):  5.49750E+00
# Atomization energy (eV/atom):     -5.74455E+00
# Volume of the unit cell (A^3):     1.07218E+02
