# generated using pymatgen
data_ZnH4(CO)4
_symmetry_space_group_name_H-M   'P 1'
_cell_length_a   3.62114888
_cell_length_b   4.23268656
_cell_length_c   7.33826186
_cell_angle_alpha   78.90528001
_cell_angle_beta   87.64941036
_cell_angle_gamma   76.18192352
_symmetry_Int_Tables_number   1
_chemical_formula_structural   ZnH4(CO)4
_chemical_formula_sum   'Zn1 H4 C4 O4'
_cell_volume   107.177063439
_cell_formula_units_Z   1
loop_
 _symmetry_equiv_pos_site_id
 _symmetry_equiv_pos_as_xyz
  1  'x, y, z'
loop_
 _atom_site_type_symbol
 _atom_site_label
 _atom_site_symmetry_multiplicity
 _atom_site_fract_x
 _atom_site_fract_y
 _atom_site_fract_z
 _atom_site_occupancy
  C  C1  1  0.468338  0.382900  0.530084  1
  C  C2  1  0.233946  0.398678  0.704687  1
  C  C3  1  0.446099  0.469134  0.864807  1
  C  C4  1  0.211842  0.484864  0.039457  1
  H  H5  1  0.983173  0.598477  0.670301  1
  H  H6  1  0.155856  0.162935  0.747434  1
  H  H7  1  0.524152  0.704890  0.822049  1
  H  H8  1  0.696895  0.269342  0.899167  1
  O  O9  1  0.410746  0.639237  0.398963  1
  O  O10  1  0.714867  0.114588  0.520664  1
  O  O11  1  0.269607  0.228533  0.170579  1
  O  O12  1  0.965354  0.753186  0.048920  1
  Zn  Zn13  1  0.840517  0.933819  0.284843  1
 
# Source:                            Huan_etal:SciDat(submitted)                                                     
# Class:                             organometallic_polymer_crystal                                                  
# Label:                             Zn-based_polymer                                                                
# Structure prediction method used:  minima-hopping                                                                  
# Number of atoms:                    13
# Number of atom types:                4
# Atom types:                         C  H  O Zn
# Dielectric constant, electronic:   3.19050E+00
# Dielectric constant, ionic:        6.84348E+00
# Dielectric constant, total:        1.00340E+01
# Band gap at the GGA level (eV):    3.61710E+00
# Band gap at the HSE06 level (eV):  5.49880E+00
# Atomization energy (eV/atom):     -5.74453E+00
# Volume of the unit cell (A^3):     1.07177E+02
