# generated using pymatgen
data_ZnH4(CO)4
_symmetry_space_group_name_H-M   'P 1'
_cell_length_a   3.39974870
_cell_length_b   4.44267594
_cell_length_c   7.25295810
_cell_angle_alpha   92.03230700
_cell_angle_beta   91.53822841
_cell_angle_gamma   105.42246163
_symmetry_Int_Tables_number   1
_chemical_formula_structural   ZnH4(CO)4
_chemical_formula_sum   'Zn1 H4 C4 O4'
_cell_volume   105.462570653
_cell_formula_units_Z   1
loop_
 _symmetry_equiv_pos_site_id
 _symmetry_equiv_pos_as_xyz
  1  'x, y, z'
loop_
 _atom_site_type_symbol
 _atom_site_label
 _atom_site_symmetry_multiplicity
 _atom_site_fract_x
 _atom_site_fract_y
 _atom_site_fract_z
 _atom_site_occupancy
  C  C1  1  0.065413  0.153181  0.525006  1
  C  C2  1  0.896332  0.046003  0.709188  1
  C  C3  1  0.885859  0.308878  0.847859  1
  C  C4  1  0.719619  0.201024  0.032374  1
  H  H5  1  0.598336  0.882728  0.682976  1
  H  H6  1  0.084391  0.905242  0.765773  1
  H  H7  1  0.695668  0.448463  0.791820  1
  H  H8  1  0.183364  0.473164  0.873388  1
  O  O9  1  0.992002  0.950011  0.387764  1
  O  O10  1  0.283842  0.432550  0.514427  1
  O  O11  1  0.794724  0.403637  0.169904  1
  O  O12  1  0.502003  0.921369  0.042977  1
  Zn  Zn13  1  0.393874  0.677023  0.278749  1
 
# Source:                            Huan_etal:SciDat(submitted)                                                     
# Class:                             organometallic_polymer_crystal                                                  
# Label:                             Zn-based_polymer                                                                
# Structure prediction method used:  minima-hopping                                                                  
# Number of atoms:                    13
# Number of atom types:                4
# Atom types:                         C  H  O Zn
# Dielectric constant, electronic:   3.16467E+00
# Dielectric constant, ionic:        4.57314E+00
# Dielectric constant, total:        7.73781E+00
# Band gap at the GGA level (eV):    3.73770E+00
# Band gap at the HSE06 level (eV):  5.64780E+00
# Atomization energy (eV/atom):     -5.76096E+00
# Volume of the unit cell (A^3):     1.05463E+02
