# generated using pymatgen
data_ZnH4(CO)4
_symmetry_space_group_name_H-M   'P 1'
_cell_length_a   3.60692331
_cell_length_b   4.57098878
_cell_length_c   6.96667482
_cell_angle_alpha   89.66491015
_cell_angle_beta   89.65862291
_cell_angle_gamma   83.28486055
_symmetry_Int_Tables_number   1
_chemical_formula_structural   ZnH4(CO)4
_chemical_formula_sum   'Zn1 H4 C4 O4'
_cell_volume   114.069472139
_cell_formula_units_Z   1
loop_
 _symmetry_equiv_pos_site_id
 _symmetry_equiv_pos_as_xyz
  1  'x, y, z'
loop_
 _atom_site_type_symbol
 _atom_site_label
 _atom_site_symmetry_multiplicity
 _atom_site_fract_x
 _atom_site_fract_y
 _atom_site_fract_z
 _atom_site_occupancy
  C  C1  1  0.254711  0.082731  0.454955  1
  C  C2  1  0.109706  0.127603  0.253811  1
  C  C3  1  0.017795  0.450827  0.200633  1
  C  C4  1  0.901108  0.497895  0.993150  1
  H  H5  1  0.325947  0.024597  0.156897  1
  H  H6  1  0.869159  0.010484  0.235115  1
  H  H7  1  0.263046  0.565388  0.219677  1
  H  H8  1  0.804826  0.556604  0.297008  1
  O  O9  1  0.167069  0.865036  0.559488  1
  O  O10  1  0.486362  0.249752  0.517750  1
  O  O11  1  0.689999  0.740077  0.956836  1
  O  O12  1  0.015812  0.307302  0.867475  1
  Zn  Zn13  1  0.712873  0.001165  0.737019  1
 
# Source:                            Huan_etal:SciDat(submitted)                                                     
# Class:                             organometallic_polymer_crystal                                                  
# Label:                             Zn-based_polymer                                                                
# Structure prediction method used:  minima-hopping                                                                  
# Number of atoms:                    13
# Number of atom types:                4
# Atom types:                         C  H  O Zn
# Dielectric constant, electronic:   2.98929E+00
# Dielectric constant, ionic:        3.23862E+00
# Dielectric constant, total:        6.22791E+00
# Band gap at the GGA level (eV):    4.18060E+00
# Band gap at the HSE06 level (eV):  6.16270E+00
# Atomization energy (eV/atom):     -5.73198E+00
# Volume of the unit cell (A^3):     1.14069E+02
