# generated using pymatgen
data_ZnH4(CO)4
_symmetry_space_group_name_H-M   'P 1'
_cell_length_a   3.55534061
_cell_length_b   4.60037142
_cell_length_c   7.28490315
_cell_angle_alpha   75.55316177
_cell_angle_beta   85.86909024
_cell_angle_gamma   74.32630614
_symmetry_Int_Tables_number   1
_chemical_formula_structural   ZnH4(CO)4
_chemical_formula_sum   'Zn1 H4 C4 O4'
_cell_volume   111.091639261
_cell_formula_units_Z   1
loop_
 _symmetry_equiv_pos_site_id
 _symmetry_equiv_pos_as_xyz
  1  'x, y, z'
loop_
 _atom_site_type_symbol
 _atom_site_label
 _atom_site_symmetry_multiplicity
 _atom_site_fract_x
 _atom_site_fract_y
 _atom_site_fract_z
 _atom_site_occupancy
  C  C1  1  0.702885  0.680135  0.471425  1
  C  C2  1  0.790221  0.828276  0.267052  1
  C  C3  1  0.998689  0.572920  0.166982  1
  C  C4  1  0.177611  0.664415  0.974148  1
  H  H5  1  0.521195  0.971221  0.193814  1
  H  H6  1  0.970007  0.983403  0.270267  1
  H  H7  1  0.807076  0.432965  0.151345  1
  H  H8  1  0.236893  0.413887  0.257172  1
  O  O9  1  0.776842  0.784868  0.605234  1
  O  O10  1  0.578739  0.433576  0.494904  1
  O  O11  1  0.410495  0.451937  0.913794  1
  O  O12  1  0.099231  0.961561  0.884302  1
  Zn  Zn13  1  0.541861  0.141628  0.740397  1
 
# Source:                            Huan_etal:SciDat(submitted)                                                     
# Class:                             organometallic_polymer_crystal                                                  
# Label:                             Zn-based_polymer                                                                
# Structure prediction method used:  minima-hopping                                                                  
# Number of atoms:                    13
# Number of atom types:                4
# Atom types:                         C  H  O Zn
# Dielectric constant, electronic:   3.04467E+00
# Dielectric constant, ionic:        3.67234E+00
# Dielectric constant, total:        6.71701E+00
# Band gap at the GGA level (eV):    3.66850E+00
# Band gap at the HSE06 level (eV):  5.66710E+00
# Atomization energy (eV/atom):     -5.72578E+00
# Volume of the unit cell (A^3):     1.11092E+02
