# generated using pymatgen
data_ZnH6C5O4
_symmetry_space_group_name_H-M   'P 1'
_cell_length_a   3.62611007
_cell_length_b   4.19464346
_cell_length_c   8.77960275
_cell_angle_alpha   84.08320763
_cell_angle_beta   86.51672447
_cell_angle_gamma   73.32659242
_symmetry_Int_Tables_number   1
_chemical_formula_structural   ZnH6C5O4
_chemical_formula_sum   'Zn1 H6 C5 O4'
_cell_volume   127.175624332
_cell_formula_units_Z   1
loop_
 _symmetry_equiv_pos_site_id
 _symmetry_equiv_pos_as_xyz
  1  'x, y, z'
loop_
 _atom_site_type_symbol
 _atom_site_label
 _atom_site_symmetry_multiplicity
 _atom_site_fract_x
 _atom_site_fract_y
 _atom_site_fract_z
 _atom_site_occupancy
  C  C1  1  0.366784  0.013500  0.541534  1
  C  C2  1  0.283663  0.230614  0.392378  1
  C  C3  1  0.463445  0.057598  0.249360  1
  C  C4  1  0.333137  0.292050  0.105717  1
  C  C5  1  0.520851  0.176185  0.954954  1
  H  H6  1  0.973818  0.334523  0.383973  1
  H  H7  1  0.393020  0.443758  0.404652  1
  H  H8  1  0.373411  0.832276  0.246459  1
  H  H9  1  0.021989  0.351488  0.095458  1
  H  H10  1  0.776193  0.975234  0.253957  1
  H  H11  1  0.383205  0.534283  0.112578  1
  O  O12  1  0.140402  0.082665  0.658006  1
  O  O13  1  0.672539  0.763139  0.545117  1
  O  O14  1  0.741471  0.883181  0.949011  1
  O  O15  1  0.457310  0.397799  0.836826  1
  Zn  Zn16  1  0.916070  0.631137  0.750462  1
 
# Source:                            Huan_etal:SciDat(submitted)                                                     
# Class:                             organometallic_polymer_crystal                                                  
# Label:                             Zn-based_polymer                                                                
# Structure prediction method used:  minima-hopping                                                                  
# Number of atoms:                    16
# Number of atom types:                4
# Atom types:                         C  H  O Zn
# Dielectric constant, electronic:   3.07369E+00
# Dielectric constant, ionic:        7.07915E+00
# Dielectric constant, total:        1.01528E+01
# Band gap at the GGA level (eV):    4.02180E+00
# Band gap at the HSE06 level (eV):  5.97650E+00
# Atomization energy (eV/atom):     -5.62939E+00
# Volume of the unit cell (A^3):     1.27176E+02
