# generated using pymatgen
data_ZnH6C5O4
_symmetry_space_group_name_H-M   'P 1'
_cell_length_a   3.58415839
_cell_length_b   4.25257211
_cell_length_c   8.60505348
_cell_angle_alpha   93.46920507
_cell_angle_beta   92.46228351
_cell_angle_gamma   104.68981094
_symmetry_Int_Tables_number   1
_chemical_formula_structural   ZnH6C5O4
_chemical_formula_sum   'Zn1 H6 C5 O4'
_cell_volume   126.406531856
_cell_formula_units_Z   1
loop_
 _symmetry_equiv_pos_site_id
 _symmetry_equiv_pos_as_xyz
  1  'x, y, z'
loop_
 _atom_site_type_symbol
 _atom_site_label
 _atom_site_symmetry_multiplicity
 _atom_site_fract_x
 _atom_site_fract_y
 _atom_site_fract_z
 _atom_site_occupancy
  C  C1  1  0.999894  0.175062  0.480936  1
  C  C2  1  0.071489  0.393730  0.629817  1
  C  C3  1  0.925933  0.224815  0.776161  1
  C  C4  1  0.920483  0.479633  0.908006  1
  C  C5  1  0.772855  0.363914  0.061604  1
  H  H6  1  0.375968  0.521542  0.644054  1
  H  H7  1  0.920858  0.581440  0.606467  1
  H  H8  1  0.113758  0.073982  0.811878  1
  H  H9  1  0.202834  0.650385  0.931517  1
  H  H10  1  0.638170  0.063686  0.749902  1
  H  H11  1  0.733460  0.632640  0.872083  1
  O  O12  1  0.214534  0.250656  0.367455  1
  O  O13  1  0.710986  0.920179  0.472967  1
  O  O14  1  0.556681  0.079790  0.068056  1
  O  O15  1  0.853154  0.578769  0.181093  1
  Zn  Zn16  1  0.403430  0.824166  0.266807  1
 
# Source:                            Huan_etal:SciDat(submitted)                                                     
# Class:                             organometallic_polymer_crystal                                                  
# Label:                             Zn-based_polymer                                                                
# Structure prediction method used:  minima-hopping                                                                  
# Number of atoms:                    16
# Number of atom types:                4
# Atom types:                         C  H  O Zn
# Dielectric constant, electronic:   3.08340E+00
# Dielectric constant, ionic:        6.37997E+00
# Dielectric constant, total:        9.46337E+00
# Band gap at the GGA level (eV):    3.92710E+00
# Band gap at the HSE06 level (eV):  5.89450E+00
# Atomization energy (eV/atom):     -5.62824E+00
# Volume of the unit cell (A^3):     1.26407E+02
