# generated using pymatgen
data_ZnH6C5O4
_symmetry_space_group_name_H-M   'P 1'
_cell_length_a   4.17111457
_cell_length_b   4.62851063
_cell_length_c   7.51424516
_cell_angle_alpha   99.38495439
_cell_angle_beta   95.85894484
_cell_angle_gamma   111.23519757
_symmetry_Int_Tables_number   1
_chemical_formula_structural   ZnH6C5O4
_chemical_formula_sum   'Zn1 H6 C5 O4'
_cell_volume   131.346301546
_cell_formula_units_Z   1
loop_
 _symmetry_equiv_pos_site_id
 _symmetry_equiv_pos_as_xyz
  1  'x, y, z'
loop_
 _atom_site_type_symbol
 _atom_site_label
 _atom_site_symmetry_multiplicity
 _atom_site_fract_x
 _atom_site_fract_y
 _atom_site_fract_z
 _atom_site_occupancy
  C  C1  1  0.261593  0.014967  0.528116  1
  C  C2  1  0.463243  0.022092  0.371837  1
  C  C3  1  0.291665  0.134057  0.217627  1
  C  C4  1  0.548663  0.352496  0.119293  1
  C  C5  1  0.682913  0.207745  0.963963  1
  H  H6  1  0.729962  0.192097  0.424058  1
  H  H7  1  0.467923  0.790229  0.322366  1
  H  H8  1  0.149468  0.269530  0.279953  1
  H  H9  1  0.427834  0.496260  0.059563  1
  H  H10  1  0.101292  0.928014  0.119936  1
  H  H11  1  0.777628  0.520112  0.217908  1
  O  O12  1  0.309200  0.271129  0.637932  1
  O  O13  1  0.028139  0.743631  0.537127  1
  O  O14  1  0.573981  0.903603  0.914530  1
  O  O15  1  0.903702  0.395719  0.887631  1
  Zn  Zn16  1  0.760860  0.669081  0.736861  1
 
# Source:                            Huan_etal:SciDat(submitted)                                                     
# Class:                             organometallic_polymer_crystal                                                  
# Label:                             Zn-based_polymer                                                                
# Structure prediction method used:  minima-hopping                                                                  
# Number of atoms:                    16
# Number of atom types:                4
# Atom types:                         C  H  O Zn
# Dielectric constant, electronic:   2.99323E+00
# Dielectric constant, ionic:        2.02783E+00
# Dielectric constant, total:        5.02106E+00
# Band gap at the GGA level (eV):    4.32100E+00
# Band gap at the HSE06 level (eV):  6.29060E+00
# Atomization energy (eV/atom):     -5.63164E+00
# Volume of the unit cell (A^3):     1.31346E+02
