# generated using pymatgen
data_ZnH6C5O4
_symmetry_space_group_name_H-M   'P 1'
_cell_length_a   3.91968991
_cell_length_b   4.93458290
_cell_length_c   7.54732344
_cell_angle_alpha   76.82065141
_cell_angle_beta   81.60504355
_cell_angle_gamma   68.26503774
_symmetry_Int_Tables_number   1
_chemical_formula_structural   ZnH6C5O4
_chemical_formula_sum   'Zn1 H6 C5 O4'
_cell_volume   131.724520081
_cell_formula_units_Z   1
loop_
 _symmetry_equiv_pos_site_id
 _symmetry_equiv_pos_as_xyz
  1  'x, y, z'
loop_
 _atom_site_type_symbol
 _atom_site_label
 _atom_site_symmetry_multiplicity
 _atom_site_fract_x
 _atom_site_fract_y
 _atom_site_fract_z
 _atom_site_occupancy
  C  C1  1  0.405809  0.890511  0.524561  1
  C  C2  1  0.213050  0.861958  0.375024  1
  C  C3  1  0.418321  0.909817  0.186058  1
  C  C4  1  0.710968  0.628458  0.136747  1
  C  C5  1  0.923072  0.670574  0.952203  1
  H  H6  1  0.178916  0.646998  0.404786  1
  H  H7  1  0.943456  0.036673  0.371884  1
  H  H8  1  0.539131  0.079533  0.177732  1
  H  H9  1  0.917911  0.520865  0.238242  1
  H  H10  1  0.215519  -0.000037  0.084734  1
  H  H11  1  0.587233  0.463588  0.134874  1
  O  O12  1  0.620350  0.665425  0.625117  1
  O  O13  1  0.357010  0.159549  0.536062  1
  O  O14  1  0.910747  0.927977  0.863225  1
  O  O15  1  0.125653  0.427827  0.902464  1
  Zn  Zn16  1  0.545492  0.279818  0.725216  1
 
# Source:                            Huan_etal:SciDat(submitted)                                                     
# Class:                             organometallic_polymer_crystal                                                  
# Label:                             Zn-based_polymer                                                                
# Structure prediction method used:  minima-hopping                                                                  
# Number of atoms:                    16
# Number of atom types:                4
# Atom types:                         C  H  O Zn
# Dielectric constant, electronic:   2.93999E+00
# Dielectric constant, ionic:        2.37854E+00
# Dielectric constant, total:        5.31853E+00
# Band gap at the GGA level (eV):    4.39020E+00
# Band gap at the HSE06 level (eV):  6.27150E+00
# Atomization energy (eV/atom):     -5.63375E+00
# Volume of the unit cell (A^3):     1.31725E+02
