# generated using pymatgen
data_ZnH8(C3O2)2
_symmetry_space_group_name_H-M   'P 1'
_cell_length_a   3.50258846
_cell_length_b   4.45493653
_cell_length_c   9.72631281
_cell_angle_alpha   90.27678170
_cell_angle_beta   93.59478703
_cell_angle_gamma   72.94609224
_symmetry_Int_Tables_number   1
_chemical_formula_structural   ZnH8(C3O2)2
_chemical_formula_sum   'Zn1 H8 C6 O4'
_cell_volume   144.794097647
_cell_formula_units_Z   1
loop_
 _symmetry_equiv_pos_site_id
 _symmetry_equiv_pos_as_xyz
  1  'x, y, z'
loop_
 _atom_site_type_symbol
 _atom_site_label
 _atom_site_symmetry_multiplicity
 _atom_site_fract_x
 _atom_site_fract_y
 _atom_site_fract_z
 _atom_site_occupancy
  C  C1  1  0.723732  0.333320  0.395146  1
  C  C2  1  0.596407  0.462790  0.534704  1
  C  C3  1  0.580826  0.220834  0.643311  1
  C  C4  1  0.450980  0.375105  0.780678  1
  C  C5  1  0.435452  0.133105  0.889257  1
  C  C6  1  0.307323  0.262404  0.028764  1
  H  H7  1  0.804761  0.591694  0.569774  1
  H  H8  1  0.310235  0.643552  0.518147  1
  H  H9  1  0.872837  0.045490  0.659111  1
  H  H10  1  0.655837  0.503151  0.819331  1
  H  H11  1  0.721782  0.952588  0.905917  1
  H  H12  1  0.227562  0.003875  0.854075  1
  H  H13  1  0.375925  0.092815  0.604662  1
  H  H14  1  0.158928  0.550422  0.764879  1
  O  O15  1  0.635608  0.523763  0.290738  1
  O  O16  1  0.921759  0.044154  0.388247  1
  O  O17  1  0.109001  0.551475  0.035687  1
  O  O18  1  0.395017  0.071789  0.133126  1
  Zn  Zn19  1  0.014855  0.797948  0.211933  1
 
# Source:                            Huan_etal:SciDat(submitted)                                                     
# Class:                             organometallic_polymer_crystal                                                  
# Label:                             Zn-based_polymer                                                                
# Structure prediction method used:  minima-hopping                                                                  
# Number of atoms:                    19
# Number of atom types:                4
# Atom types:                         C  H  O Zn
# Dielectric constant, electronic:   3.04727E+00
# Dielectric constant, ionic:        4.05574E+00
# Dielectric constant, total:        7.10301E+00
# Band gap at the GGA level (eV):    3.84270E+00
# Band gap at the HSE06 level (eV):  5.78320E+00
# Atomization energy (eV/atom):     -5.56465E+00
# Volume of the unit cell (A^3):     1.44794E+02
