# generated using pymatgen
data_ZnH8(C3O2)2
_symmetry_space_group_name_H-M   'P 1'
_cell_length_a   3.85090795
_cell_length_b   4.14341777
_cell_length_c   9.94568446
_cell_angle_alpha   94.36952769
_cell_angle_beta   98.68055595
_cell_angle_gamma   102.24351163
_symmetry_Int_Tables_number   1
_chemical_formula_structural   ZnH8(C3O2)2
_chemical_formula_sum   'Zn1 H8 C6 O4'
_cell_volume   152.342150222
_cell_formula_units_Z   1
loop_
 _symmetry_equiv_pos_site_id
 _symmetry_equiv_pos_as_xyz
  1  'x, y, z'
loop_
 _atom_site_type_symbol
 _atom_site_label
 _atom_site_symmetry_multiplicity
 _atom_site_fract_x
 _atom_site_fract_y
 _atom_site_fract_z
 _atom_site_occupancy
  C  C1  1  0.814902  0.170813  0.405692  1
  C  C2  1  0.794525  0.370272  0.536336  1
  C  C3  1  0.660934  0.162740  0.647179  1
  C  C4  1  0.651196  0.386305  0.775842  1
  C  C5  1  0.542642  0.195887  0.894849  1
  C  C6  1  0.644573  0.400031  0.034150  1
  H  H7  1  0.059150  0.533979  0.574564  1
  H  H8  1  0.610418  0.528781  0.505352  1
  H  H9  1  0.839852  0.996184  0.673941  1
  H  H10  1  0.918939  0.548786  0.809995  1
  H  H11  1  0.683263  0.993671  0.906152  1
  H  H12  1  0.254750  0.079941  0.878292  1
  H  H13  1  0.393914  0.004753  0.606463  1
  H  H14  1  0.466801  0.548765  0.750594  1
  O  O15  1  0.066236  0.281184  0.339784  1
  O  O16  1  0.580848  0.896207  0.363391  1
  O  O17  1  0.910701  0.658411  0.046979  1
  O  O18  1  0.484770  0.313720  0.131701  1
  Zn  Zn19  1  0.177972  0.922132  0.214504  1
 
# Source:                            Huan_etal:SciDat(submitted)                                                     
# Class:                             organometallic_polymer_crystal                                                  
# Label:                             Zn-based_polymer                                                                
# Structure prediction method used:  minima-hopping                                                                  
# Number of atoms:                    19
# Number of atom types:                4
# Atom types:                         C  H  O Zn
# Dielectric constant, electronic:   2.92980E+00
# Dielectric constant, ionic:        4.90179E+00
# Dielectric constant, total:        7.83159E+00
# Band gap at the GGA level (eV):    4.17500E+00
# Band gap at the HSE06 level (eV):  6.18050E+00
# Atomization energy (eV/atom):     -5.55532E+00
# Volume of the unit cell (A^3):     1.52342E+02
