# generated using pymatgen
data_ZnH10C7O4
_symmetry_space_group_name_H-M   'P 1'
_cell_length_a   3.64200127
_cell_length_b   4.28083806
_cell_length_c   11.08885631
_cell_angle_alpha   91.61211975
_cell_angle_beta   96.09222332
_cell_angle_gamma   105.26814291
_symmetry_Int_Tables_number   1
_chemical_formula_structural   ZnH10C7O4
_chemical_formula_sum   'Zn1 H10 C7 O4'
_cell_volume   165.55662737
_cell_formula_units_Z   1
loop_
 _symmetry_equiv_pos_site_id
 _symmetry_equiv_pos_as_xyz
  1  'x, y, z'
loop_
 _atom_site_type_symbol
 _atom_site_label
 _atom_site_symmetry_multiplicity
 _atom_site_fract_x
 _atom_site_fract_y
 _atom_site_fract_z
 _atom_site_occupancy
  C  C1  1  0.828430  0.367804  0.353011  1
  C  C2  1  0.910218  0.577998  0.469770  1
  C  C3  1  0.785510  0.394361  0.581670  1
  C  C4  1  0.784067  0.622920  0.690107  1
  C  C5  1  0.673782  0.448228  0.805190  1
  C  C6  1  0.674160  0.694597  0.907523  1
  C  C7  1  0.553518  0.572607  0.027638  1
  H  H8  1  0.211575  0.711848  0.482695  1
  H  H9  1  0.751023  0.759395  0.452193  1
  H  H10  1  0.953162  0.870725  0.925645  1
  H  H11  1  0.477959  0.839982  0.878628  1
  H  H12  1  0.975482  0.241119  0.606533  1
  H  H13  1  0.066779  0.796437  0.710539  1
  H  H14  1  0.875478  0.308584  0.833454  1
  H  H15  1  0.391227  0.275509  0.785773  1
  H  H16  1  0.498928  0.230776  0.558480  1
  H  H17  1  0.585551  0.768743  0.664838  1
  O  O18  1  0.035328  0.448680  0.267222  1
  O  O19  1  0.539855  0.113351  0.344110  1
  O  O20  1  0.650662  0.779312  0.121078  1
  O  O21  1  0.340403  0.286777  0.031852  1
  Zn  Zn22  1  0.199052  0.038695  0.186307  1
 
# Source:                            Huan_etal:SciDat(submitted)                                                     
# Class:                             organometallic_polymer_crystal                                                  
# Label:                             Zn-based_polymer                                                                
# Structure prediction method used:  minima-hopping                                                                  
# Number of atoms:                    22
# Number of atom types:                4
# Atom types:                         C  H  O Zn
# Dielectric constant, electronic:   2.99883E+00
# Dielectric constant, ionic:        9.02737E+00
# Dielectric constant, total:        1.20262E+01
# Band gap at the GGA level (eV):    3.99510E+00
# Band gap at the HSE06 level (eV):  5.96210E+00
# Atomization energy (eV/atom):     -5.49773E+00
# Volume of the unit cell (A^3):     1.65557E+02
