# generated using pymatgen
data_ZnH10C7O4
_symmetry_space_group_name_H-M   'P 1'
_cell_length_a   3.77899979
_cell_length_b   4.25500233
_cell_length_c   10.92902214
_cell_angle_alpha   92.62470942
_cell_angle_beta   93.78273811
_cell_angle_gamma   103.29465260
_symmetry_Int_Tables_number   1
_chemical_formula_structural   ZnH10C7O4
_chemical_formula_sum   'Zn1 H10 C7 O4'
_cell_volume   170.31601286
_cell_formula_units_Z   1
loop_
 _symmetry_equiv_pos_site_id
 _symmetry_equiv_pos_as_xyz
  1  'x, y, z'
loop_
 _atom_site_type_symbol
 _atom_site_label
 _atom_site_symmetry_multiplicity
 _atom_site_fract_x
 _atom_site_fract_y
 _atom_site_fract_z
 _atom_site_occupancy
  C  C1  1  0.069995  0.449097  0.353456  1
  C  C2  1  0.967409  0.588093  0.472040  1
  C  C3  1  0.805124  0.351400  0.565964  1
  C  C4  1  0.741309  0.540158  0.682128  1
  C  C5  1  0.626695  0.336800  0.791170  1
  C  C6  1  0.574993  0.559871  0.900033  1
  C  C7  1  0.545767  0.407256  0.022179  1
  H  H8  1  0.212214  0.758915  0.513251  1
  H  H9  1  0.778898  0.736011  0.444363  1
  H  H10  1  0.803253  0.771474  0.911823  1
  H  H11  1  0.329817  0.650137  0.881200  1
  H  H12  1  0.989239  0.195453  0.589687  1
  H  H13  1  0.993899  0.720405  0.711824  1
  H  H14  1  0.836522  0.208301  0.817755  1
  H  H15  1  0.375215  0.152194  0.766195  1
  H  H16  1  0.549793  0.192082  0.526025  1
  H  H17  1  0.539020  0.680179  0.659821  1
  O  O18  1  0.300819  0.631999  0.291946  1
  O  O19  1  0.926467  0.152168  0.319393  1
  O  O20  1  0.748154  0.544176  0.114940  1
  O  O21  1  0.306487  0.134903  0.027306  1
  Zn  Zn22  1  0.142631  0.953716  0.182517  1
 
# Source:                            Huan_etal:SciDat(submitted)                                                     
# Class:                             organometallic_polymer_crystal                                                  
# Label:                             Zn-based_polymer                                                                
# Structure prediction method used:  minima-hopping                                                                  
# Number of atoms:                    22
# Number of atom types:                4
# Atom types:                         C  H  O Zn
# Dielectric constant, electronic:   2.93517E+00
# Dielectric constant, ionic:        2.03362E+00
# Dielectric constant, total:        4.96879E+00
# Band gap at the GGA level (eV):    4.16210E+00
# Band gap at the HSE06 level (eV):  6.11670E+00
# Atomization energy (eV/atom):     -5.50047E+00
# Volume of the unit cell (A^3):     1.70316E+02
