# generated using pymatgen
data_ZnH10C7O4
_symmetry_space_group_name_H-M   'P 1'
_cell_length_a   3.67573430
_cell_length_b   4.62348785
_cell_length_c   11.70250489
_cell_angle_alpha   80.37598565
_cell_angle_beta   75.14552872
_cell_angle_gamma   61.32434247
_symmetry_Int_Tables_number   1
_chemical_formula_structural   ZnH10C7O4
_chemical_formula_sum   'Zn1 H10 C7 O4'
_cell_volume   168.427762139
_cell_formula_units_Z   1
loop_
 _symmetry_equiv_pos_site_id
 _symmetry_equiv_pos_as_xyz
  1  'x, y, z'
loop_
 _atom_site_type_symbol
 _atom_site_label
 _atom_site_symmetry_multiplicity
 _atom_site_fract_x
 _atom_site_fract_y
 _atom_site_fract_z
 _atom_site_occupancy
  C  C1  1  0.933404  0.308975  0.659220  1
  C  C2  1  0.927779  0.512198  0.543496  1
  C  C3  1  0.039724  0.325061  0.433140  1
  C  C4  1  0.062266  0.542664  0.320193  1
  C  C5  1  0.198053  0.365457  0.205691  1
  C  C6  1  0.232288  0.594004  0.097370  1
  C  C7  1  0.303976  0.468831  0.977886  1
  H  H8  1  0.607807  0.719306  0.552481  1
  H  H9  1  0.136096  0.622560  0.536252  1
  H  H10  1  0.947917  0.831752  0.102415  1
  H  H11  1  0.485795  0.657109  0.094367  1
  H  H12  1  0.812032  0.234082  0.436791  1
  H  H13  1  0.752477  0.757405  0.321165  1
  H  H14  1  0.974546  0.276129  0.202335  1
  H  H15  1  0.502406  0.146243  0.205088  1
  H  H16  1  0.346162  0.106456  0.431353  1
  H  H17  1  0.279511  0.642010  0.320257  1
  O  O18  1  0.995641  0.386990  0.749024  1
  O  O19  1  0.870626  0.056074  0.661600  1
  O  O20  1  0.243021  0.688064  0.889283  1
  O  O21  1  0.404895  0.169774  0.969386  1
  Zn  Zn22  1  0.671086  0.886202  0.819630  1
 
# Source:                            Huan_etal:SciDat(submitted)                                                     
# Class:                             organometallic_polymer_crystal                                                  
# Label:                             Zn-based_polymer                                                                
# Structure prediction method used:  minima-hopping                                                                  
# Number of atoms:                    22
# Number of atom types:                4
# Atom types:                         C  H  O Zn
# Dielectric constant, electronic:   2.96283E+00
# Dielectric constant, ionic:        3.73572E+00
# Dielectric constant, total:        6.69855E+00
# Band gap at the GGA level (eV):    3.99140E+00
# Band gap at the HSE06 level (eV):  5.96010E+00
# Atomization energy (eV/atom):     -5.49927E+00
# Volume of the unit cell (A^3):     1.68428E+02
