# generated using pymatgen
data_ZnH10C7O4
_symmetry_space_group_name_H-M   'P 1'
_cell_length_a   3.66648388
_cell_length_b   4.14623956
_cell_length_c   11.29821921
_cell_angle_alpha   84.71963622
_cell_angle_beta   80.74758955
_cell_angle_gamma   75.37017793
_symmetry_Int_Tables_number   1
_chemical_formula_structural   ZnH10C7O4
_chemical_formula_sum   'Zn1 H10 C7 O4'
_cell_volume   163.78805159
_cell_formula_units_Z   1
loop_
 _symmetry_equiv_pos_site_id
 _symmetry_equiv_pos_as_xyz
  1  'x, y, z'
loop_
 _atom_site_type_symbol
 _atom_site_label
 _atom_site_symmetry_multiplicity
 _atom_site_fract_x
 _atom_site_fract_y
 _atom_site_fract_z
 _atom_site_occupancy
  C  C1  1  0.741136  0.171108  0.659576  1
  C  C2  1  0.960457  0.054186  0.539123  1
  C  C3  1  0.870897  0.290532  0.428954  1
  C  C4  1  0.859005  0.104968  0.318987  1
  C  C5  1  0.794818  0.336108  0.206708  1
  C  C6  1  0.783052  0.140460  0.098574  1
  C  C7  1  0.777954  0.353445  0.982782  1
  H  H8  1  0.263154  0.992415  0.547063  1
  H  H9  1  0.899095  0.813474  0.531211  1
  H  H10  1  0.028549  0.928964  0.087736  1
  H  H11  1  0.528558  0.043336  0.113285  1
  H  H12  1  0.082972  0.437756  0.406240  1
  H  H13  1  0.126012  0.915189  0.299538  1
  H  H14  1  0.022861  0.466585  0.185046  1
  H  H15  1  0.530100  0.528811  0.224279  1
  H  H16  1  0.597383  0.468801  0.451162  1
  H  H17  1  0.635409  0.968372  0.339875  1
  O  O18  1  0.780208  0.955354  0.750707  1
  O  O19  1  0.513921  0.456965  0.666401  1
  O  O20  1  0.048557  0.280005  0.895566  1
  O  O21  1  0.498700  0.612746  0.977744  1
  Zn  Zn22  1  0.283676  0.728046  0.820908  1
 
# Source:                            Huan_etal:SciDat(submitted)                                                     
# Class:                             organometallic_polymer_crystal                                                  
# Label:                             Zn-based_polymer                                                                
# Structure prediction method used:  minima-hopping                                                                  
# Number of atoms:                    22
# Number of atom types:                4
# Atom types:                         C  H  O Zn
# Dielectric constant, electronic:   3.03274E+00
# Dielectric constant, ionic:        6.24758E+00
# Dielectric constant, total:        9.28032E+00
# Band gap at the GGA level (eV):    4.08770E+00
# Band gap at the HSE06 level (eV):  6.06040E+00
# Atomization energy (eV/atom):     -5.49476E+00
# Volume of the unit cell (A^3):     1.63788E+02
