# generated using pymatgen
data_ZnH10C7O4
_symmetry_space_group_name_H-M   'P 1'
_cell_length_a   3.89107870
_cell_length_b   4.37364048
_cell_length_c   10.56634795
_cell_angle_alpha   93.48938624
_cell_angle_beta   93.07075230
_cell_angle_gamma   108.66629060
_symmetry_Int_Tables_number   1
_chemical_formula_structural   ZnH10C7O4
_chemical_formula_sum   'Zn1 H10 C7 O4'
_cell_volume   169.537302432
_cell_formula_units_Z   1
loop_
 _symmetry_equiv_pos_site_id
 _symmetry_equiv_pos_as_xyz
  1  'x, y, z'
loop_
 _atom_site_type_symbol
 _atom_site_label
 _atom_site_symmetry_multiplicity
 _atom_site_fract_x
 _atom_site_fract_y
 _atom_site_fract_z
 _atom_site_occupancy
  C  C1  1  0.992953  0.899300  0.655691  1
  C  C2  1  0.719494  0.828017  0.542303  1
  C  C3  1  0.840868  0.682928  0.421652  1
  C  C4  1  0.035727  0.935859  0.333332  1
  C  C5  1  0.107653  0.784417  0.205347  1
  C  C6  1  0.118542  0.006539  0.101519  1
  C  C7  1  0.874812  0.928197  0.000555  1
  H  H8  1  0.471037  0.650896  0.567959  1
  H  H9  1  0.666216  0.050720  0.522467  1
  H  H10  1  0.313354  0.248330  0.112740  1
  H  H11  1  0.774705  0.331636  0.956174  1
  H  H12  1  0.594722  0.521810  0.368410  1
  H  H13  1  0.864165  0.084854  0.313056  1
  H  H14  1  0.891385  0.553598  0.180263  1
  H  H15  1  0.360531  0.726350  0.215616  1
  H  H16  1  0.003649  0.530800  0.447794  1
  H  H17  1  0.289418  0.099307  0.381045  1
  O  O18  1  0.952438  0.674303  0.732737  1
  O  O19  1  0.251063  0.169232  0.669962  1
  O  O20  1  0.620442  0.636308  0.972824  1
  O  O21  1  0.862065  0.160951  0.912722  1
  Zn  Zn22  1  0.311742  0.495571  0.818071  1
 
# Source:                            Huan_etal:SciDat(submitted)                                                     
# Class:                             organometallic_polymer_crystal                                                  
# Label:                             Zn-based_polymer                                                                
# Structure prediction method used:  minima-hopping                                                                  
# Number of atoms:                    22
# Number of atom types:                4
# Atom types:                         C  H  O Zn
# Dielectric constant, electronic:   3.07595E+00
# Dielectric constant, ionic:        3.59667E+00
# Dielectric constant, total:        6.67262E+00
# Band gap at the GGA level (eV):    2.49660E+00
# Band gap at the HSE06 level (eV):  3.97560E+00
# Atomization energy (eV/atom):     -5.43751E+00
# Volume of the unit cell (A^3):     1.69537E+02
