# generated using pymatgen
data_ZnH12(C2O)4
_symmetry_space_group_name_H-M   'P 1'
_cell_length_a   3.91102110
_cell_length_b   4.05191779
_cell_length_c   12.53881478
_cell_angle_alpha   86.71139140
_cell_angle_beta   81.96347087
_cell_angle_gamma   75.41964815
_symmetry_Int_Tables_number   1
_chemical_formula_structural   ZnH12(C2O)4
_chemical_formula_sum   'Zn1 H12 C8 O4'
_cell_volume   190.365566938
_cell_formula_units_Z   1
loop_
 _symmetry_equiv_pos_site_id
 _symmetry_equiv_pos_as_xyz
  1  'x, y, z'
loop_
 _atom_site_type_symbol
 _atom_site_label
 _atom_site_symmetry_multiplicity
 _atom_site_fract_x
 _atom_site_fract_y
 _atom_site_fract_z
 _atom_site_occupancy
  C  C1  1  0.775863  0.406910  0.672572  1
  C  C2  1  0.791286  0.615083  0.569018  1
  C  C3  1  0.772557  0.412968  0.470631  1
  C  C4  1  0.746724  0.638261  0.368392  1
  C  C5  1  0.723651  0.446620  0.269025  1
  C  C6  1  0.692464  0.672067  0.166894  1
  C  C7  1  0.669880  0.468174  0.069462  1
  C  C8  1  0.662545  0.674291  0.965100  1
  H  H9  1  0.567683  0.839550  0.577675  1
  H  H10  1  0.038556  0.698737  0.558727  1
  H  H11  1  0.456245  0.885462  0.179465  1
  H  H12  1  0.923045  0.782338  0.150201  1
  H  H13  1  0.540236  0.304708  0.485907  1
  H  H14  1  0.511030  0.852758  0.381805  1
  H  H15  1  0.494636  0.332987  0.284684  1
  H  H16  1  0.960186  0.233137  0.255171  1
  H  H17  1  0.427318  0.376310  0.083258  1
  H  H18  1  0.896723  0.247503  0.059184  1
  H  H19  1  0.007411  0.197685  0.458966  1
  H  H20  1  0.976999  0.750209  0.353274  1
  O  O21  1  0.500436  0.492506  0.742194  1
  O  O22  1  0.037146  0.147587  0.685705  1
  O  O23  1  0.911624  0.598559  0.887804  1
  O  O24  1  0.392291  0.933914  0.959961  1
  Zn  Zn25  1  0.249614  0.138438  0.822307  1
 
# Source:                            Huan_etal:SciDat(submitted)                                                     
# Class:                             organometallic_polymer_crystal                                                  
# Label:                             Zn-based_polymer                                                                
# Structure prediction method used:  minima-hopping                                                                  
# Number of atoms:                    25
# Number of atom types:                4
# Atom types:                         C  H  O Zn
# Dielectric constant, electronic:   2.92733E+00
# Dielectric constant, ionic:        3.39791E+00
# Dielectric constant, total:        6.32524E+00
# Band gap at the GGA level (eV):    4.16300E+00
# Band gap at the HSE06 level (eV):  6.09160E+00
# Atomization energy (eV/atom):     -5.45884E+00
# Volume of the unit cell (A^3):     1.90366E+02
