# generated using pymatgen
data_ZnH14C9O4
_symmetry_space_group_name_H-M   'P 1'
_cell_length_a   3.69359976
_cell_length_b   4.28177862
_cell_length_c   13.61594274
_cell_angle_alpha   90.86460955
_cell_angle_beta   97.82370555
_cell_angle_gamma   105.51670879
_symmetry_Int_Tables_number   1
_chemical_formula_structural   ZnH14C9O4
_chemical_formula_sum   'Zn1 H14 C9 O4'
_cell_volume   205.259143577
_cell_formula_units_Z   1
loop_
 _symmetry_equiv_pos_site_id
 _symmetry_equiv_pos_as_xyz
  1  'x, y, z'
loop_
 _atom_site_type_symbol
 _atom_site_label
 _atom_site_symmetry_multiplicity
 _atom_site_fract_x
 _atom_site_fract_y
 _atom_site_fract_z
 _atom_site_occupancy
  C  C1  1  0.926474  0.306965  0.302976  1
  C  C2  1  0.823982  0.180922  0.401557  1
  C  C3  1  0.822992  0.424167  0.484740  1
  C  C4  1  0.733854  0.246501  0.579231  1
  C  C5  1  0.717904  0.466819  0.667232  1
  C  C6  1  0.631469  0.278866  0.760012  1
  C  C7  1  0.631603  0.498349  0.849857  1
  C  C8  1  0.541585  0.307442  0.942021  1
  C  C9  1  0.629343  0.516215  0.037469  1
  H  H10  1  0.552031  0.996925  0.387194  1
  H  H11  1  0.030029  0.044905  0.425376  1
  H  H12  1  0.356451  0.096339  0.743166  1
  H  H13  1  0.841269  0.142857  0.778971  1
  H  H14  1  0.248257  0.159163  0.933466  1
  H  H15  1  0.718291  0.139223  0.954534  1
  H  H16  1  0.612177  0.554769  0.461512  1
  H  H17  1  0.461801  0.059881  0.562456  1
  H  H18  1  0.504151  0.597583  0.646641  1
  H  H19  1  0.989665  0.653125  0.684794  1
  H  H20  1  0.426561  0.639126  0.831507  1
  H  H21  1  0.910009  0.674303  0.867194  1
  H  H22  1  0.098277  0.605649  0.499921  1
  H  H23  1  0.945803  0.114716  0.600893  1
  O  O24  1  0.818144  0.104876  0.226145  1
  O  O25  1  0.138459  0.594187  0.300025  1
  O  O26  1  0.918135  0.769247  0.045801  1
  O  O27  1  0.426302  0.434896  0.106448  1
  Zn  Zn28  1  0.274833  0.834251  0.173636  1
 
# Source:                            Huan_etal:SciDat(submitted)                                                     
# Class:                             organometallic_polymer_crystal                                                  
# Label:                             Zn-based_polymer                                                                
# Structure prediction method used:  minima-hopping                                                                  
# Number of atoms:                    28
# Number of atom types:                4
# Atom types:                         C  H  O Zn
# Dielectric constant, electronic:   2.94446E+00
# Dielectric constant, ionic:        3.62241E+00
# Dielectric constant, total:        6.56687E+00
# Band gap at the GGA level (eV):    4.03760E+00
# Band gap at the HSE06 level (eV):  6.00920E+00
# Atomization energy (eV/atom):     -5.42371E+00
# Volume of the unit cell (A^3):     2.05259E+02
