# generated using pymatgen
data_ZnH14C9O4
_symmetry_space_group_name_H-M   'P 1'
_cell_length_a   3.72682765
_cell_length_b   4.37466338
_cell_length_c   13.90974399
_cell_angle_alpha   86.64887667
_cell_angle_beta   87.09748078
_cell_angle_gamma   67.73608921
_symmetry_Int_Tables_number   1
_chemical_formula_structural   ZnH14C9O4
_chemical_formula_sum   'Zn1 H14 C9 O4'
_cell_volume   209.413902975
_cell_formula_units_Z   1
loop_
 _symmetry_equiv_pos_site_id
 _symmetry_equiv_pos_as_xyz
  1  'x, y, z'
loop_
 _atom_site_type_symbol
 _atom_site_label
 _atom_site_symmetry_multiplicity
 _atom_site_fract_x
 _atom_site_fract_y
 _atom_site_fract_z
 _atom_site_occupancy
  C  C1  1  0.393634  0.581788  0.302051  1
  C  C2  1  0.500101  0.390106  0.397499  1
  C  C3  1  0.301759  0.583214  0.486408  1
  C  C4  1  0.441015  0.374778  0.579500  1
  C  C5  1  0.259144  0.558629  0.671107  1
  C  C6  1  0.407240  0.345167  0.762856  1
  C  C7  1  0.231427  0.519794  0.856275  1
  C  C8  1  0.400154  0.292432  0.944141  1
  C  C9  1  0.231111  0.421465  0.041981  1
  H  H10  1  0.425682  0.171817  0.392956  1
  H  H11  1  0.814206  0.293484  0.402537  1
  H  H12  1  0.345666  0.119830  0.761153  1
  H  H13  1  0.724122  0.261181  0.763367  1
  H  H14  1  0.372901  0.053636  0.939857  1
  H  H15  1  0.713188  0.230699  0.945965  1
  H  H16  1  0.986743  0.667225  0.482713  1
  H  H17  1  0.376421  0.150767  0.578578  1
  H  H18  1  0.942461  0.643362  0.669877  1
  H  H19  1  0.323150  0.782802  0.672113  1
  H  H20  1  0.915618  0.597668  0.857428  1
  H  H21  1  0.287679  0.746734  0.858697  1
  H  H22  1  0.365721  0.807421  0.487157  1
  H  H23  1  0.757693  0.288565  0.581768  1
  O  O24  1  0.616782  0.499746  0.227817  1
  O  O25  1  0.066994  0.830343  0.300187  1
  O  O26  1  0.032615  0.726212  0.049483  1
  O  O27  1  0.303405  0.202939  0.113533  1
  Zn  Zn28  1  0.874754  0.012737  0.170430  1
 
# Source:                            Huan_etal:SciDat(submitted)                                                     
# Class:                             organometallic_polymer_crystal                                                  
# Label:                             Zn-based_polymer                                                                
# Structure prediction method used:  minima-hopping                                                                  
# Number of atoms:                    28
# Number of atom types:                4
# Atom types:                         C  H  O Zn
# Dielectric constant, electronic:   2.90048E+00
# Dielectric constant, ionic:        4.40823E+00
# Dielectric constant, total:        7.30871E+00
# Band gap at the GGA level (eV):    3.97580E+00
# Band gap at the HSE06 level (eV):  5.97430E+00
# Atomization energy (eV/atom):     -5.42549E+00
# Volume of the unit cell (A^3):     2.09414E+02
