# generated using pymatgen
data_ZnH14C9O4
_symmetry_space_group_name_H-M   'P 1'
_cell_length_a   4.05096918
_cell_length_b   4.78433619
_cell_length_c   12.14024259
_cell_angle_alpha   84.10513142
_cell_angle_beta   95.82292447
_cell_angle_gamma   66.99886939
_symmetry_Int_Tables_number   1
_chemical_formula_structural   ZnH14C9O4
_chemical_formula_sum   'Zn1 H14 C9 O4'
_cell_volume   212.84943411
_cell_formula_units_Z   1
loop_
 _symmetry_equiv_pos_site_id
 _symmetry_equiv_pos_as_xyz
  1  'x, y, z'
loop_
 _atom_site_type_symbol
 _atom_site_label
 _atom_site_symmetry_multiplicity
 _atom_site_fract_x
 _atom_site_fract_y
 _atom_site_fract_z
 _atom_site_occupancy
  C  C1  1  0.697389  0.584953  0.698649  1
  C  C2  1  0.807300  0.718032  0.596868  1
  C  C3  1  0.019161  0.480638  0.526520  1
  C  C4  1  0.063972  0.629683  0.414306  1
  C  C5  1  0.279401  0.392601  0.344251  1
  C  C6  1  0.318057  0.537898  0.230484  1
  C  C7  1  0.543823  0.300102  0.162295  1
  C  C8  1  0.617820  0.447935  0.053292  1
  C  C9  1  0.293212  0.559960  0.961886  1
  H  H10  1  0.554209  0.886872  0.546543  1
  H  H11  1  0.957021  0.851487  0.624943  1
  H  H12  1  0.049900  0.678080  0.182193  1
  H  H13  1  0.447896  0.697128  0.243998  1
  H  H14  1  0.676793  0.644617  0.069989  1
  H  H15  1  0.850532  0.280103  0.024988  1
  H  H16  1  0.879825  0.330247  0.510802  1
  H  H17  1  0.795629  0.773642  0.366291  1
  H  H18  1  0.148035  0.234079  0.331629  1
  H  H19  1  0.549853  0.252195  0.391446  1
  H  H20  1  0.412397  0.145579  0.142426  1
  H  H21  1  0.806299  0.155546  0.213192  1
  H  H22  1  0.284870  0.333849  0.574588  1
  H  H23  1  0.198953  0.784915  0.428791  1
  O  O24  1  0.519462  0.761681  0.764098  1
  O  O25  1  0.771784  0.296768  0.711368  1
  O  O26  1  0.247620  0.379535  0.896666  1
  O  O27  1  0.059111  0.836575  0.958129  1
  Zn  Zn28  1  0.644454  0.069848  0.834984  1
 
# Source:                            Huan_etal:SciDat(submitted)                                                     
# Class:                             organometallic_polymer_crystal                                                  
# Label:                             Zn-based_polymer                                                                
# Structure prediction method used:  minima-hopping                                                                  
# Number of atoms:                    28
# Number of atom types:                4
# Atom types:                         C  H  O Zn
# Dielectric constant, electronic:   2.82051E+00
# Dielectric constant, ionic:        1.29340E+00
# Dielectric constant, total:        4.11391E+00
# Band gap at the GGA level (eV):    4.56240E+00
# Band gap at the HSE06 level (eV):  6.46570E+00
# Atomization energy (eV/atom):     -5.43668E+00
# Volume of the unit cell (A^3):     2.12849E+02
