# generated using pymatgen
data_ZnH16(C5O2)2
_symmetry_space_group_name_H-M   'P 1'
_cell_length_a   3.61123071
_cell_length_b   4.45871062
_cell_length_c   14.74175594
_cell_angle_alpha   88.04903208
_cell_angle_beta   83.09102945
_cell_angle_gamma   71.80028629
_symmetry_Int_Tables_number   1
_chemical_formula_structural   ZnH16(C5O2)2
_chemical_formula_sum   'Zn1 H16 C10 O4'
_cell_volume   223.850009865
_cell_formula_units_Z   1
loop_
 _symmetry_equiv_pos_site_id
 _symmetry_equiv_pos_as_xyz
  1  'x, y, z'
loop_
 _atom_site_type_symbol
 _atom_site_label
 _atom_site_symmetry_multiplicity
 _atom_site_fract_x
 _atom_site_fract_y
 _atom_site_fract_z
 _atom_site_occupancy
  C  C1  1  0.966731  0.622220  0.285346  1
  C  C2  1  0.779472  0.763956  0.378094  1
  C  C3  1  0.707898  0.533832  0.452380  1
  C  C4  1  0.517022  0.708189  0.542254  1
  C  C5  1  0.435465  0.491397  0.619696  1
  C  C6  1  0.247866  0.669920  0.709102  1
  C  C7  1  0.166263  0.453221  0.786566  1
  C  C8  1  0.975952  0.627737  0.876447  1
  C  C9  1  0.904200  0.397872  0.950798  1
  C  C10  1  0.718325  0.539924  0.043594  1
  H  H11  1  0.970694  0.889766  0.399398  1
  H  H12  1  0.508453  0.949662  0.367530  1
  H  H13  1  0.437620  0.797389  0.730095  1
  H  H14  1  0.973333  0.851683  0.697037  1
  H  H15  1  0.162563  0.754185  0.899396  1
  H  H16  1  0.699800  0.807558  0.865256  1
  H  H17  1  0.984195  0.354267  0.463612  1
  H  H18  1  0.704293  0.836970  0.563856  1
  H  H19  1  0.710004  0.309650  0.631759  1
  H  H20  1  0.245723  0.363929  0.598696  1
  H  H21  1  0.441518  0.271735  0.798377  1
  H  H22  1  0.978633  0.324654  0.765030  1
  H  H23  1  0.174925  0.211646  0.961251  1
  H  H24  1  0.711980  0.272715  0.929652  1
  H  H25  1  0.521715  0.407160  0.429348  1
  H  H26  1  0.241683  0.889486  0.530404  1
  O  O27  1  0.931737  0.805809  0.215574  1
  O  O28  1  0.159422  0.327662  0.281403  1
  O  O29  1  0.754005  0.356520  0.113407  1
  O  O30  1  0.526157  0.834603  0.047545  1
  Zn  Zn31  1  0.343642  0.081049  0.164499  1
 
# Source:                            Huan_etal:SciDat(submitted)                                                     
# Class:                             organometallic_polymer_crystal                                                  
# Label:                             Zn-based_polymer                                                                
# Structure prediction method used:  minima-hopping                                                                  
# Number of atoms:                    31
# Number of atom types:                4
# Atom types:                         C  H  O Zn
# Dielectric constant, electronic:   2.93484E+00
# Dielectric constant, ionic:        5.57083E+00
# Dielectric constant, total:        8.50566E+00
# Band gap at the GGA level (eV):    3.95380E+00
# Band gap at the HSE06 level (eV):  5.89830E+00
# Atomization energy (eV/atom):     -5.40338E+00
# Volume of the unit cell (A^3):     2.23850E+02
