# generated using pymatgen
data_ZnH16(C5O2)2
_symmetry_space_group_name_H-M   'P 1'
_cell_length_a   3.61154868
_cell_length_b   4.77768954
_cell_length_c   15.02394446
_cell_angle_alpha   76.08696513
_cell_angle_beta   87.76704652
_cell_angle_gamma   63.33386797
_symmetry_Int_Tables_number   1
_chemical_formula_structural   ZnH16(C5O2)2
_chemical_formula_sum   'Zn1 H16 C10 O4'
_cell_volume   224.154793721
_cell_formula_units_Z   1
loop_
 _symmetry_equiv_pos_site_id
 _symmetry_equiv_pos_as_xyz
  1  'x, y, z'
loop_
 _atom_site_type_symbol
 _atom_site_label
 _atom_site_symmetry_multiplicity
 _atom_site_fract_x
 _atom_site_fract_y
 _atom_site_fract_z
 _atom_site_occupancy
  C  C1  1  0.569298  0.664041  0.717090  1
  C  C2  1  0.515084  0.613027  0.623557  1
  C  C3  1  0.222242  0.914503  0.551465  1
  C  C4  1  0.196992  0.839136  0.458981  1
  C  C5  1  0.905300  0.135647  0.385004  1
  C  C6  1  0.886609  0.060559  0.292211  1
  C  C7  1  0.595044  0.356929  0.218179  1
  C  C8  1  0.571183  0.281171  0.125695  1
  C  C9  1  0.278602  0.582269  0.053453  1
  C  C10  1  0.228081  0.530557  0.959809  1
  H  H11  1  0.826661  0.506910  0.599622  1
  H  H12  1  0.418622  0.421989  0.634429  1
  H  H13  1  0.198550  0.958953  0.268467  1
  H  H14  1  0.786554  0.870695  0.301472  1
  H  H15  1  0.879610  0.180424  0.100405  1
  H  H16  1  0.467732  0.093788  0.135321  1
  H  H17  1  0.326368  0.101524  0.541764  1
  H  H18  1  0.507505  0.735854  0.434560  1
  H  H19  1  0.005385  0.325490  0.375741  1
  H  H20  1  0.593391  0.237231  0.408757  1
  H  H21  1  0.696803  0.545995  0.208558  1
  H  H22  1  0.284222  0.460006  0.242464  1
  H  H23  1  0.373602  0.774060  0.042837  1
  H  H24  1  0.966175  0.687512  0.077019  1
  H  H25  1  0.914219  0.015466  0.576926  1
  H  H26  1  0.094775  0.650315  0.468663  1
  O  O27  1  0.717610  0.415992  0.786287  1
  O  O28  1  0.472268  0.952299  0.721830  1
  O  O29  1  0.082003  0.778114  0.890455  1
  O  O30  1  0.326091  0.242041  0.955122  1
  Zn  Zn31  1  0.400857  0.097372  0.838428  1
 
# Source:                            Huan_etal:SciDat(submitted)                                                     
# Class:                             organometallic_polymer_crystal                                                  
# Label:                             Zn-based_polymer                                                                
# Structure prediction method used:  minima-hopping                                                                  
# Number of atoms:                    31
# Number of atom types:                4
# Atom types:                         C  H  O Zn
# Dielectric constant, electronic:   2.92968E+00
# Dielectric constant, ionic:        6.11105E+00
# Dielectric constant, total:        9.04072E+00
# Band gap at the GGA level (eV):    3.93000E+00
# Band gap at the HSE06 level (eV):  5.87820E+00
# Atomization energy (eV/atom):     -5.40321E+00
# Volume of the unit cell (A^3):     2.24155E+02
