# generated using pymatgen
data_ZnH16(C5O2)2
_symmetry_space_group_name_H-M   'P 1'
_cell_length_a   3.86648401
_cell_length_b   4.21477079
_cell_length_c   14.63662055
_cell_angle_alpha   83.48475854
_cell_angle_beta   87.70128276
_cell_angle_gamma   77.11789566
_symmetry_Int_Tables_number   1
_chemical_formula_structural   ZnH16(C5O2)2
_chemical_formula_sum   'Zn1 H16 C10 O4'
_cell_volume   230.991276249
_cell_formula_units_Z   1
loop_
 _symmetry_equiv_pos_site_id
 _symmetry_equiv_pos_as_xyz
  1  'x, y, z'
loop_
 _atom_site_type_symbol
 _atom_site_label
 _atom_site_symmetry_multiplicity
 _atom_site_fract_x
 _atom_site_fract_y
 _atom_site_fract_z
 _atom_site_occupancy
  C  C1  1  0.705831  0.428239  0.718747  1
  C  C2  1  0.671825  0.631510  0.625598  1
  C  C3  1  0.827732  0.443926  0.544157  1
  C  C4  1  0.899411  0.666118  0.458426  1
  C  C5  1  0.060060  0.469916  0.379060  1
  C  C6  1  0.153826  0.680841  0.293366  1
  C  C7  1  0.322139  0.477859  0.215983  1
  C  C8  1  0.413086  0.685520  0.129293  1
  C  C9  1  0.603151  0.474939  0.055669  1
  C  C10  1  0.687933  0.669547  0.967801  1
  H  H11  1  0.393272  0.753973  0.615698  1
  H  H12  1  0.812802  0.825346  0.632996  1
  H  H13  1  0.913718  0.855778  0.268060  1
  H  H14  1  0.335588  0.827574  0.312083  1
  H  H15  1  0.170696  0.845593  0.100236  1
  H  H16  1  0.579814  0.846379  0.147696  1
  H  H17  1  0.648849  0.291906  0.527104  1
  H  H18  1  0.653511  0.838909  0.436044  1
  H  H19  1  0.876019  0.325027  0.360586  1
  H  H20  1  0.300545  0.292522  0.403234  1
  H  H21  1  0.143373  0.326915  0.198305  1
  H  H22  1  0.563909  0.305998  0.241554  1
  H  H23  1  0.435628  0.319120  0.034916  1
  H  H24  1  0.848879  0.313204  0.081641  1
  H  H25  1  0.077567  0.276020  0.565158  1
  H  H26  1  0.081019  0.814907  0.476061  1
  O  O27  1  0.499038  0.514546  0.784588  1
  O  O28  1  0.965058  0.170958  0.726664  1
  O  O29  1  0.973970  0.559161  0.924327  1
  O  O30  1  0.472993  0.939453  0.938657  1
  Zn  Zn31  1  0.146113  0.904057  0.838835  1
 
# Source:                            Huan_etal:SciDat(submitted)                                                     
# Class:                             organometallic_polymer_crystal                                                  
# Label:                             Zn-based_polymer                                                                
# Structure prediction method used:  minima-hopping                                                                  
# Number of atoms:                    31
# Number of atom types:                4
# Atom types:                         C  H  O Zn
# Dielectric constant, electronic:   2.85865E+00
# Dielectric constant, ionic:        2.07833E+00
# Dielectric constant, total:        4.93698E+00
# Band gap at the GGA level (eV):    4.21000E+00
# Band gap at the HSE06 level (eV):  6.21240E+00
# Atomization energy (eV/atom):     -5.39941E+00
# Volume of the unit cell (A^3):     2.30991E+02
