# generated using pymatgen
data_ZnH16(C5O2)2
_symmetry_space_group_name_H-M   'P 1'
_cell_length_a   3.62377498
_cell_length_b   4.50337379
_cell_length_c   14.72846228
_cell_angle_alpha   87.40815298
_cell_angle_beta   83.68213663
_cell_angle_gamma   70.36769031
_symmetry_Int_Tables_number   1
_chemical_formula_structural   ZnH16(C5O2)2
_chemical_formula_sum   'Zn1 H16 C10 O4'
_cell_volume   225.000886506
_cell_formula_units_Z   1
loop_
 _symmetry_equiv_pos_site_id
 _symmetry_equiv_pos_as_xyz
  1  'x, y, z'
loop_
 _atom_site_type_symbol
 _atom_site_label
 _atom_site_symmetry_multiplicity
 _atom_site_fract_x
 _atom_site_fract_y
 _atom_site_fract_z
 _atom_site_occupancy
  C  C1  1  0.727478  0.416381  0.282820  1
  C  C2  1  0.834950  0.275190  0.375701  1
  C  C3  1  0.832243  0.507099  0.448740  1
  C  C4  1  0.947527  0.337234  0.539207  1
  C  C5  1  0.949868  0.558146  0.615116  1
  C  C6  1  0.060991  0.383800  0.705189  1
  C  C7  1  0.062436  0.601790  0.781955  1
  C  C8  1  0.168163  0.425598  0.872031  1
  C  C9  1  0.163376  0.649127  0.947735  1
  C  C10  1  0.227218  0.497976  0.041442  1
  H  H11  1  0.628526  0.150216  0.397992  1
  H  H12  1  0.120676  0.089494  0.365242  1
  H  H13  1  0.857356  0.256084  0.727082  1
  H  H14  1  0.352256  0.202778  0.693618  1
  H  H15  1  0.961671  0.300611  0.893737  1
  H  H16  1  0.458017  0.243485  0.861452  1
  H  H17  1  0.540607  0.686390  0.459842  1
  H  H18  1  0.746121  0.208638  0.562278  1
  H  H19  1  0.658715  0.739302  0.626683  1
  H  H20  1  0.153850  0.685133  0.592865  1
  H  H21  1  0.771954  0.784343  0.793045  1
  H  H22  1  0.268229  0.728044  0.760600  1
  H  H23  1  0.887123  0.846757  0.955166  1
  H  H24  1  0.390140  0.758568  0.931041  1
  H  H25  1  0.034321  0.633253  0.424324  1
  H  H26  1  0.239402  0.156788  0.527821  1
  O  O27  1  0.818457  0.233072  0.213563  1
  O  O28  1  0.541470  0.712889  0.278641  1
  O  O29  1  0.111915  0.674633  0.112145  1
  O  O30  1  0.396528  0.198616  0.045243  1
  Zn  Zn31  1  0.430090  0.957147  0.162735  1
 
# Source:                            Huan_etal:SciDat(submitted)                                                     
# Class:                             organometallic_polymer_crystal                                                  
# Label:                             Zn-based_polymer                                                                
# Structure prediction method used:  minima-hopping                                                                  
# Number of atoms:                    31
# Number of atom types:                4
# Atom types:                         C  H  O Zn
# Dielectric constant, electronic:   2.92240E+00
# Dielectric constant, ionic:        4.73931E+00
# Dielectric constant, total:        7.66171E+00
# Band gap at the GGA level (eV):    3.96800E+00
# Band gap at the HSE06 level (eV):  5.91360E+00
# Atomization energy (eV/atom):     -5.40416E+00
# Volume of the unit cell (A^3):     2.25001E+02
