# generated using pymatgen
data_ZnH16(C5O2)2
_symmetry_space_group_name_H-M   'P 1'
_cell_length_a   3.60990574
_cell_length_b   4.50312199
_cell_length_c   14.65649736
_cell_angle_alpha   89.57115684
_cell_angle_beta   96.30862648
_cell_angle_gamma   108.89143021
_symmetry_Int_Tables_number   1
_chemical_formula_structural   ZnH16(C5O2)2
_chemical_formula_sum   'Zn1 H16 C10 O4'
_cell_volume   223.954891297
_cell_formula_units_Z   1
loop_
 _symmetry_equiv_pos_site_id
 _symmetry_equiv_pos_as_xyz
  1  'x, y, z'
loop_
 _atom_site_type_symbol
 _atom_site_label
 _atom_site_symmetry_multiplicity
 _atom_site_fract_x
 _atom_site_fract_y
 _atom_site_fract_z
 _atom_site_occupancy
  C  C1  1  0.965132  0.383843  0.715081  1
  C  C2  1  0.769063  0.239452  0.621655  1
  C  C3  1  0.703954  0.469070  0.549173  1
  C  C4  1  0.510834  0.300084  0.457161  1
  C  C5  1  0.439519  0.521931  0.382609  1
  C  C6  1  0.252180  0.352372  0.290406  1
  C  C7  1  0.180743  0.573979  0.215784  1
  C  C8  1  0.988317  0.404543  0.123789  1
  C  C9  1  0.923066  0.633589  0.051137  1
  C  C10  1  0.729679  0.488387  0.957635  1
  H  H11  1  0.953102  0.110743  0.598336  1
  H  H12  1  0.493296  0.057686  0.632337  1
  H  H13  1  0.439167  0.226649  0.267131  1
  H  H14  1  0.972277  0.171359  0.300119  1
  H  H15  1  0.171340  0.278347  0.098960  1
  H  H16  1  0.707741  0.226247  0.133694  1
  H  H17  1  0.984686  0.647099  0.539239  1
  H  H18  1  0.694398  0.172239  0.433267  1
  H  H19  1  0.719437  0.702896  0.372892  1
  H  H20  1  0.252561  0.647655  0.405892  1
  H  H21  1  0.461200  0.753942  0.205775  1
  H  H22  1  0.996709  0.701607  0.239562  1
  H  H23  1  0.198443  0.816172  0.040665  1
  H  H24  1  0.737280  0.761313  0.074111  1
  H  H25  1  0.521491  0.595408  0.574184  1
  H  H26  1  0.230247  0.120324  0.467187  1
  O  O27  1  0.933589  0.204463  0.784456  1
  O  O28  1  0.160127  0.677486  0.719636  1
  O  O29  1  0.762446  0.667294  0.888140  1
  O  O30  1  0.535777  0.194523  0.953103  1
  Zn  Zn31  1  0.349659  0.935905  0.836317  1
 
# Source:                            Huan_etal:SciDat(submitted)                                                     
# Class:                             organometallic_polymer_crystal                                                  
# Label:                             Zn-based_polymer                                                                
# Structure prediction method used:  minima-hopping                                                                  
# Number of atoms:                    31
# Number of atom types:                4
# Atom types:                         C  H  O Zn
# Dielectric constant, electronic:   2.93173E+00
# Dielectric constant, ionic:        4.79958E+00
# Dielectric constant, total:        7.73131E+00
# Band gap at the GGA level (eV):    3.94960E+00
# Band gap at the HSE06 level (eV):  5.89260E+00
# Atomization energy (eV/atom):     -5.40318E+00
# Volume of the unit cell (A^3):     2.23955E+02
