# generated using pymatgen
data_ZnH16(C5O2)2
_symmetry_space_group_name_H-M   'P 1'
_cell_length_a   3.64113533
_cell_length_b   4.62185184
_cell_length_c   13.48003040
_cell_angle_alpha   88.78384392
_cell_angle_beta   88.78620845
_cell_angle_gamma   78.33084706
_symmetry_Int_Tables_number   1
_chemical_formula_structural   ZnH16(C5O2)2
_chemical_formula_sum   'Zn1 H16 C10 O4'
_cell_volume   222.08085442
_cell_formula_units_Z   1
loop_
 _symmetry_equiv_pos_site_id
 _symmetry_equiv_pos_as_xyz
  1  'x, y, z'
loop_
 _atom_site_type_symbol
 _atom_site_label
 _atom_site_symmetry_multiplicity
 _atom_site_fract_x
 _atom_site_fract_y
 _atom_site_fract_z
 _atom_site_occupancy
  C  C1  1  0.493808  0.678899  0.712884  1
  C  C2  1  0.338276  0.645897  0.611151  1
  C  C3  1  0.148569  0.930056  0.557582  1
  C  C4  1  0.039525  0.867835  0.451965  1
  C  C5  1  0.877904  0.145603  0.390880  1
  C  C6  1  0.772848  0.077132  0.285626  1
  C  C7  1  0.611331  0.354971  0.224568  1
  C  C8  1  0.502066  0.293197  0.118920  1
  C  C9  1  0.313020  0.577862  0.065555  1
  C  C10  1  0.157466  0.546417  0.963703  1
  H  H11  1  0.573458  0.528292  0.566449  1
  H  H12  1  0.148366  0.492655  0.621220  1
  H  H13  1  0.021142  0.952199  0.247329  1
  H  H14  1  0.570390  0.932089  0.289838  1
  H  H15  1  0.747315  0.182402  0.076182  1
  H  H16  1  0.309866  0.140248  0.122296  1
  H  H17  1  0.340288  0.083393  0.554131  1
  H  H18  1  0.286606  0.744129  0.412688  1
  H  H19  1  0.080346  0.290668  0.386657  1
  H  H20  1  0.629629  0.270556  0.429187  1
  H  H21  1  0.813299  0.500186  0.221420  1
  H  H22  1  0.364368  0.478715  0.263884  1
  H  H23  1  0.503487  0.730754  0.055715  1
  H  H24  1  0.078063  0.695430  0.110333  1
  H  H25  1  0.903108  0.040744  0.600267  1
  H  H26  1  0.837687  0.722515  0.455135  1
  O  O27  1  0.732312  0.459205  0.745402  1
  O  O28  1  0.398832  0.927167  0.758149  1
  O  O29  1  0.919637  0.767246  0.931599  1
  O  O30  1  0.251878  0.298918  0.918001  1
  Zn  Zn31  1  0.823774  0.112406  0.838215  1
 
# Source:                            Huan_etal:SciDat(submitted)                                                     
# Class:                             organometallic_polymer_crystal                                                  
# Label:                             Zn-based_polymer                                                                
# Structure prediction method used:  minima-hopping                                                                  
# Number of atoms:                    31
# Number of atom types:                4
# Atom types:                         C  H  O Zn
# Dielectric constant, electronic:   2.94722E+00
# Dielectric constant, ionic:        1.08071E+01
# Dielectric constant, total:        1.37544E+01
# Band gap at the GGA level (eV):    3.56960E+00
# Band gap at the HSE06 level (eV):  5.55100E+00
# Atomization energy (eV/atom):     -5.38888E+00
# Volume of the unit cell (A^3):     2.22081E+02
