# generated using pymatgen
data_ZnH18C11O4
_symmetry_space_group_name_H-M   'P 1'
_cell_length_a   3.72946356
_cell_length_b   4.22434457
_cell_length_c   16.26699317
_cell_angle_alpha   88.01797402
_cell_angle_beta   90.65222919
_cell_angle_gamma   73.58351714
_symmetry_Int_Tables_number   1
_chemical_formula_structural   ZnH18C11O4
_chemical_formula_sum   'Zn1 H18 C11 O4'
_cell_volume   245.624263276
_cell_formula_units_Z   1
loop_
 _symmetry_equiv_pos_site_id
 _symmetry_equiv_pos_as_xyz
  1  'x, y, z'
loop_
 _atom_site_type_symbol
 _atom_site_label
 _atom_site_symmetry_multiplicity
 _atom_site_fract_x
 _atom_site_fract_y
 _atom_site_fract_z
 _atom_site_occupancy
  C  C1  1  0.356599  0.691924  0.267274  1
  C  C2  1  0.402469  0.482755  0.346072  1
  C  C3  1  0.428428  0.678947  0.422823  1
  C  C4  1  0.457234  0.463632  0.501702  1
  C  C5  1  0.470480  0.649569  0.580384  1
  C  C6  1  0.471540  0.435296  0.658374  1
  C  C7  1  0.443356  0.622858  0.738112  1
  C  C8  1  0.415486  0.405953  0.813831  1
  C  C9  1  0.330129  0.591115  0.894001  1
  C  C10  1  0.300564  0.351978  0.964605  1
  C  C11  1  0.167607  0.488869  0.047135  1
  H  H12  1  0.158023  0.389473  0.350035  1
  H  H13  1  0.647872  0.270798  0.342187  1
  H  H14  1  0.235868  0.329481  0.654517  1
  H  H15  1  0.723502  0.223591  0.660847  1
  H  H16  1  0.196035  0.286236  0.802239  1
  H  H17  1  0.675268  0.204112  0.821786  1
  H  H18  1  0.099227  0.219378  0.947381  1
  H  H19  1  0.563635  0.159663  0.974736  1
  H  H20  1  0.181592  0.893162  0.424905  1
  H  H21  1  0.217530  0.362240  0.503776  1
  H  H22  1  0.226808  0.868319  0.580543  1
  H  H23  1  0.715690  0.743615  0.580690  1
  H  H24  1  0.195039  0.837466  0.733767  1
  H  H25  1  0.682357  0.722742  0.745023  1
  H  H26  1  0.068162  0.788753  0.886052  1
  H  H27  1  0.547516  0.709237  0.908259  1
  H  H28  1  0.669796  0.777028  0.418728  1
  H  H29  1  0.705166  0.249158  0.499851  1
  O  O30  1  0.593481  0.614127  0.210039  1
  O  O31  1  0.071761  0.950627  0.261955  1
  O  O32  1  0.954843  0.782597  0.050222  1
  O  O33  1  0.249733  0.288499  0.111037  1
  Zn  Zn34  1  0.773141  0.031711  0.156412  1
 
# Source:                            Huan_etal:SciDat(submitted)                                                     
# Class:                             organometallic_polymer_crystal                                                  
# Label:                             Zn-based_polymer                                                                
# Structure prediction method used:  minima-hopping                                                                  
# Number of atoms:                    34
# Number of atom types:                4
# Atom types:                         C  H  O Zn
# Dielectric constant, electronic:   2.90356E+00
# Dielectric constant, ionic:        3.75569E+00
# Dielectric constant, total:        6.65925E+00
# Band gap at the GGA level (eV):    4.00140E+00
# Band gap at the HSE06 level (eV):  6.02760E+00
# Atomization energy (eV/atom):     -5.37565E+00
# Volume of the unit cell (A^3):     2.45624E+02
