# generated using pymatgen
data_ZnH18C11O4
_symmetry_space_group_name_H-M   'P 1'
_cell_length_a   3.99367677
_cell_length_b   4.80266174
_cell_length_c   14.37889049
_cell_angle_alpha   96.19294005
_cell_angle_beta   90.04799305
_cell_angle_gamma   113.02540531
_symmetry_Int_Tables_number   1
_chemical_formula_structural   ZnH18C11O4
_chemical_formula_sum   'Zn1 H18 C11 O4'
_cell_volume   252.058798258
_cell_formula_units_Z   1
loop_
 _symmetry_equiv_pos_site_id
 _symmetry_equiv_pos_as_xyz
  1  'x, y, z'
loop_
 _atom_site_type_symbol
 _atom_site_label
 _atom_site_symmetry_multiplicity
 _atom_site_fract_x
 _atom_site_fract_y
 _atom_site_fract_z
 _atom_site_occupancy
  C  C1  1  0.839202  0.190885  0.731852  1
  C  C2  1  0.104592  0.234857  0.654570  1
  C  C3  1  0.952425  0.287955  0.562131  1
  C  C4  1  0.678378  0.995582  0.507033  1
  C  C5  1  0.575091  0.046633  0.409475  1
  C  C6  1  0.301620  0.757440  0.352999  1
  C  C7  1  0.209023  0.810698  0.254773  1
  C  C8  1  0.937809  0.523197  0.197049  1
  C  C9  1  0.837087  0.586235  0.100860  1
  C  C10  1  0.571975  0.298784  0.042005  1
  C  C11  1  0.406639  0.356707  0.954676  1
  H  H12  1  0.355870  0.429117  0.676837  1
  H  H13  1  0.161294  0.029885  0.642616  1
  H  H14  1  0.412653  0.580446  0.347100  1
  H  H15  1  0.051128  0.667683  0.390998  1
  H  H16  1  0.053245  0.349059  0.188522  1
  H  H17  1  0.690231  0.427157  0.235876  1
  H  H18  1  0.698336  0.137844  0.021065  1
  H  H19  1  0.340647  0.175394  0.083186  1
  H  H20  1  0.184081  0.389487  0.518766  1
  H  H21  1  0.797829  0.824239  0.499756  1
  H  H22  1  0.822324  0.138034  0.370261  1
  H  H23  1  0.461898  0.222146  0.416203  1
  H  H24  1  0.460019  0.902482  0.217111  1
  H  H25  1  0.096805  0.986925  0.260859  1
  H  H26  1  0.082772  0.687876  0.062411  1
  H  H27  1  0.715649  0.755242  0.110529  1
  H  H28  1  0.831751  0.457153  0.576486  1
  H  H29  1  0.433843  0.899038  0.546443  1
  O  O30  1  0.835266  0.418292  0.786502  1
  O  O31  1  0.609359  0.916653  0.736026  1
  O  O32  1  0.477062  0.634823  0.943648  1
  O  O33  1  0.190015  0.132120  0.898714  1
  Zn  Zn34  1  0.275981  0.773959  0.839636  1
 
# Source:                            Huan_etal:SciDat(submitted)                                                     
# Class:                             organometallic_polymer_crystal                                                  
# Label:                             Zn-based_polymer                                                                
# Structure prediction method used:  minima-hopping                                                                  
# Number of atoms:                    34
# Number of atom types:                4
# Atom types:                         C  H  O Zn
# Dielectric constant, electronic:   2.80727E+00
# Dielectric constant, ionic:        1.33900E+00
# Dielectric constant, total:        4.14627E+00
# Band gap at the GGA level (eV):    4.55680E+00
# Band gap at the HSE06 level (eV):  6.46890E+00
# Atomization energy (eV/atom):     -5.38582E+00
# Volume of the unit cell (A^3):     2.52059E+02
