# generated using pymatgen
data_ZnH18C11O4
_symmetry_space_group_name_H-M   'P 1'
_cell_length_a   4.16157158
_cell_length_b   4.95730524
_cell_length_c   14.19501246
_cell_angle_alpha   101.55681825
_cell_angle_beta   79.44743212
_cell_angle_gamma   117.77286742
_symmetry_Int_Tables_number   1
_chemical_formula_structural   ZnH18C11O4
_chemical_formula_sum   'Zn1 H18 C11 O4'
_cell_volume   252.491942328
_cell_formula_units_Z   1
loop_
 _symmetry_equiv_pos_site_id
 _symmetry_equiv_pos_as_xyz
  1  'x, y, z'
loop_
 _atom_site_type_symbol
 _atom_site_label
 _atom_site_symmetry_multiplicity
 _atom_site_fract_x
 _atom_site_fract_y
 _atom_site_fract_z
 _atom_site_occupancy
  C  C1  1  0.699980  0.737441  0.270429  1
  C  C2  1  0.936492  0.868314  0.353031  1
  C  C3  1  0.875625  0.641567  0.421063  1
  C  C4  1  0.090696  0.812327  0.508778  1
  C  C5  1  0.040852  0.606494  0.583061  1
  C  C6  1  0.276360  0.788928  0.666898  1
  C  C7  1  0.144113  0.004137  0.736983  1
  C  C8  1  0.407401  0.204572  0.813441  1
  C  C9  1  0.260900  0.400773  0.888117  1
  C  C10  1  0.526803  0.608530  0.964496  1
  C  C11  1  0.321421  0.731338  0.046243  1
  H  H12  1  0.221565  0.974855  0.322250  1
  H  H13  1  0.886309  0.060246  0.393385  1
  H  H14  1  0.292190  0.630933  0.707731  1
  H  H15  1  0.555627  0.925997  0.636363  1
  H  H16  1  0.457991  0.058671  0.851589  1
  H  H17  1  0.671703  0.352228  0.777338  1
  H  H18  1  0.622268  0.472092  0.992343  1
  H  H19  1  0.762365  0.797482  0.933093  1
  H  H20  1  0.962032  0.469037  0.381978  1
  H  H21  1  0.382573  0.933464  0.484330  1
  H  H22  1  0.117843  0.425112  0.546746  1
  H  H23  1  0.751287  0.489799  0.610687  1
  H  H24  1  0.873365  0.867617  0.772642  1
  H  H25  1  0.109018  0.153780  0.696706  1
  H  H26  1  0.002910  0.249599  0.925451  1
  H  H27  1  0.199040  0.544617  0.852203  1
  H  H28  1  0.584508  0.517753  0.444841  1
  H  H29  1  0.009910  0.992270  0.543896  1
  O  O30  1  0.714710  0.915143  0.213569  1
  O  O31  1  0.478163  0.450627  0.262920  1
  O  O32  1  0.092386  0.552242  0.106481  1
  O  O33  1  0.364624  0.005931  0.047319  1
  Zn  Zn34  1  0.165530  0.235988  0.154799  1
 
# Source:                            Huan_etal:SciDat(submitted)                                                     
# Class:                             organometallic_polymer_crystal                                                  
# Label:                             Zn-based_polymer                                                                
# Structure prediction method used:  minima-hopping                                                                  
# Number of atoms:                    34
# Number of atom types:                4
# Atom types:                         C  H  O Zn
# Dielectric constant, electronic:   2.81334E+00
# Dielectric constant, ionic:        9.86950E-01
# Dielectric constant, total:        3.80029E+00
# Band gap at the GGA level (eV):    4.65350E+00
# Band gap at the HSE06 level (eV):  6.57540E+00
# Atomization energy (eV/atom):     -5.38627E+00
# Volume of the unit cell (A^3):     2.52492E+02
