# generated using pymatgen
data_ZnH18C11O4
_symmetry_space_group_name_H-M   'P 1'
_cell_length_a   3.97395443
_cell_length_b   4.25600738
_cell_length_c   15.46864631
_cell_angle_alpha   90.66347862
_cell_angle_beta   93.64726232
_cell_angle_gamma   105.07933625
_symmetry_Int_Tables_number   1
_chemical_formula_structural   ZnH18C11O4
_chemical_formula_sum   'Zn1 H18 C11 O4'
_cell_volume   251.996279941
_cell_formula_units_Z   1
loop_
 _symmetry_equiv_pos_site_id
 _symmetry_equiv_pos_as_xyz
  1  'x, y, z'
loop_
 _atom_site_type_symbol
 _atom_site_label
 _atom_site_symmetry_multiplicity
 _atom_site_fract_x
 _atom_site_fract_y
 _atom_site_fract_z
 _atom_site_occupancy
  C  C1  1  0.278223  0.207834  0.764939  1
  C  C2  1  0.877157  0.950329  0.641836  1
  C  C3  1  0.740928  0.076081  0.558791  1
  C  C4  1  0.526430  0.809084  0.495098  1
  C  C5  1  0.402725  0.953114  0.412235  1
  C  C6  1  0.206134  0.698678  0.343295  1
  C  C7  1  0.087351  0.852181  0.261541  1
  C  C8  1  0.887753  0.602711  0.191732  1
  C  C9  1  0.778782  0.761210  0.109823  1
  C  C10  1  0.557885  0.511946  0.042426  1
  C  C11  1  0.448353  0.667099  0.961704  1
  H  H12  1  0.991565  0.747274  0.630594  1
  H  H13  1  0.675247  0.874184  0.687517  1
  H  H14  1  0.372983  0.542924  0.325906  1
  H  H15  1  0.977427  0.538574  0.370635  1
  H  H16  1  0.048657  0.441014  0.174792  1
  H  H17  1  0.654768  0.447583  0.218568  1
  H  H18  1  0.706931  0.346586  0.021077  1
  H  H19  1  0.322778  0.364799  0.069560  1
  H  H20  1  0.965446  0.218176  0.526434  1
  H  H21  1  0.685533  0.645878  0.478012  1
  H  H22  1  0.630644  0.111636  0.384178  1
  H  H23  1  0.236850  0.110611  0.428765  1
  H  H24  1  0.317069  0.011090  0.234247  1
  H  H25  1  0.923251  0.010235  0.279266  1
  H  H26  1  0.011354  0.902908  0.080180  1
  H  H27  1  0.631825  0.934293  0.127656  1
  H  H28  1  0.586250  0.242121  0.576100  1
  H  H29  1  0.301474  0.659973  0.526097  1
  O  O30  1  0.552545  0.414245  0.788254  1
  O  O31  1  0.159635  0.225132  0.680044  1
  O  O32  1  0.656003  0.920921  0.931660  1
  O  O33  1  0.141789  0.547887  0.926059  1
  Zn  Zn34  1  0.011036  0.883745  0.847364  1
 
# Source:                            Huan_etal:SciDat(submitted)                                                     
# Class:                             organometallic_polymer_crystal                                                  
# Label:                             Zn-based_polymer                                                                
# Structure prediction method used:  minima-hopping                                                                  
# Number of atoms:                    34
# Number of atom types:                4
# Atom types:                         C  H  O Zn
# Dielectric constant, electronic:   2.90979E+00
# Dielectric constant, ionic:        1.23820E+00
# Dielectric constant, total:        4.14799E+00
# Band gap at the GGA level (eV):    3.51890E+00
# Band gap at the HSE06 level (eV):  5.16010E+00
# Atomization energy (eV/atom):     -5.33339E+00
# Volume of the unit cell (A^3):     2.51996E+02
