# generated using pymatgen
data_ZnH20(C3O)4
_symmetry_space_group_name_H-M   'P 1'
_cell_length_a   3.76751287
_cell_length_b   4.82545124
_cell_length_c   15.58322349
_cell_angle_alpha   93.92743671
_cell_angle_beta   94.95294675
_cell_angle_gamma   108.76375923
_symmetry_Int_Tables_number   1
_chemical_formula_structural   ZnH20(C3O)4
_chemical_formula_sum   'Zn1 H20 C12 O4'
_cell_volume   265.848692413
_cell_formula_units_Z   1
loop_
 _symmetry_equiv_pos_site_id
 _symmetry_equiv_pos_as_xyz
  1  'x, y, z'
loop_
 _atom_site_type_symbol
 _atom_site_label
 _atom_site_symmetry_multiplicity
 _atom_site_fract_x
 _atom_site_fract_y
 _atom_site_fract_z
 _atom_site_occupancy
  C  C1  1  0.499780  0.790976  0.261384  1
  C  C2  1  0.668798  0.883033  0.355189  1
  C  C3  1  0.735159  0.201111  0.390878  1
  C  C4  1  0.877229  0.246342  0.487977  1
  C  C5  1  0.948065  0.556459  0.531329  1
  C  C6  1  0.086990  0.590869  0.628144  1
  C  C7  1  0.160678  0.901291  0.671694  1
  C  C8  1  0.298859  0.936565  0.768550  1
  C  C9  1  0.368829  0.246893  0.811695  1
  C  C10  1  0.507470  0.288816  0.908865  1
  C  C11  1  0.560098  0.602924  0.946816  1
  C  C12  1  0.764053  0.697046  0.038025  1
  H  H13  1  0.491404  0.729241  0.394676  1
  H  H14  1  0.937192  0.838325  0.359670  1
  H  H15  1  0.878342  0.432287  0.660994  1
  H  H16  1  0.344533  0.532601  0.637186  1
  H  H17  1  0.092381  0.776569  0.801503  1
  H  H18  1  0.558217  0.880922  0.777240  1
  H  H19  1  0.308130  0.131400  0.943334  1
  H  H20  1  0.773592  0.244405  0.919330  1
  H  H21  1  0.473294  0.251867  0.380313  1
  H  H22  1  0.672199  0.088819  0.521962  1
  H  H23  1  0.689096  0.612609  0.522832  1
  H  H24  1  0.154767  0.716898  0.498630  1
  H  H25  1  0.903256  0.959602  0.662452  1
  H  H26  1  0.369723  0.059687  0.638881  1
  H  H27  1  0.109080  0.301929  0.801851  1
  H  H28  1  0.575262  0.404933  0.778169  1
  H  H29  1  0.285623  0.635149  0.947690  1
  H  H30  1  0.714936  0.761655  0.905353  1
  H  H31  1  0.936575  0.350249  0.354590  1
  H  H32  1  0.136971  0.191094  0.497483  1
  O  O33  1  0.309091  0.515715  0.245051  1
  O  O34  1  0.565418  0.978805  0.205980  1
  O  O35  1  0.966511  0.971470  0.050200  1
  O  O36  1  0.737047  0.516608  0.094885  1
  Zn  Zn37  1  0.287056  0.231731  0.147405  1
 
# Source:                            Huan_etal:SciDat(submitted)                                                     
# Class:                             organometallic_polymer_crystal                                                  
# Label:                             Zn-based_polymer                                                                
# Structure prediction method used:  minima-hopping                                                                  
# Number of atoms:                    37
# Number of atom types:                4
# Atom types:                         C  H  O Zn
# Dielectric constant, electronic:   2.88789E+00
# Dielectric constant, ionic:        3.67279E+00
# Dielectric constant, total:        6.56068E+00
# Band gap at the GGA level (eV):    4.26590E+00
# Band gap at the HSE06 level (eV):  6.24430E+00
# Atomization energy (eV/atom):     -5.35598E+00
# Volume of the unit cell (A^3):     2.65849E+02
