# generated using pymatgen
data_ZrH2C3O4
_symmetry_space_group_name_H-M   'P 1'
_cell_length_a   4.11698558
_cell_length_b   4.54483046
_cell_length_c   5.72695789
_cell_angle_alpha   83.41014799
_cell_angle_beta   78.42935833
_cell_angle_gamma   67.28522594
_symmetry_Int_Tables_number   1
_chemical_formula_structural   ZrH2C3O4
_chemical_formula_sum   'Zr1 H2 C3 O4'
_cell_volume   96.7545588342
_cell_formula_units_Z   1
loop_
 _symmetry_equiv_pos_site_id
 _symmetry_equiv_pos_as_xyz
  1  'x, y, z'
loop_
 _atom_site_type_symbol
 _atom_site_label
 _atom_site_symmetry_multiplicity
 _atom_site_fract_x
 _atom_site_fract_y
 _atom_site_fract_z
 _atom_site_occupancy
  Zr  Zr1  1  0.760707  0.150609  0.562920  1
  O  O2  1  0.103683  0.710143  0.482664  1
  O  O3  1  0.447038  0.218389  0.325602  1
  O  O4  1  0.289415  0.149050  0.839003  1
  O  O5  1  0.720800  0.455153  0.844412  1
  C  C6  1  0.092619  0.454905  0.350767  1
  C  C7  1  0.002473  0.605949  0.105520  1
  C  C8  1  0.009802  0.390009  0.924774  1
  H  H9  1  0.195184  0.716378  0.027825  1
  H  H10  1  0.734270  0.787775  0.133852  1
 
# Source:                            Huan_etal:SciDat(submitted)                                                     
# Class:                             organometallic_polymer_crystal                                                  
# Label:                             Zr-based_polymer                                                                
# Structure prediction method used:  minima-hopping                                                                  
# Number of atoms:                    10
# Number of atom types:                4
# Atom types:                        Zr  O  C  H
# Dielectric constant, electronic:   4.43444E+00
# Dielectric constant, ionic:        3.73763E+00
# Dielectric constant, total:        8.17207E+00
# Band gap at the GGA level (eV):    1.99360E+00
# Band gap at the HSE06 level (eV):  3.22800E+00
# Atomization energy (eV/atom):     -6.74953E+00
# Volume of the unit cell (A^3):     9.67546E+01
