# generated using pymatgen
data_ZrH2C3O4
_symmetry_space_group_name_H-M   'P 1'
_cell_length_a   3.92309488
_cell_length_b   4.33610108
_cell_length_c   5.99309111
_cell_angle_alpha   86.77937463
_cell_angle_beta   83.97417035
_cell_angle_gamma   69.10272558
_symmetry_Int_Tables_number   1
_chemical_formula_structural   ZrH2C3O4
_chemical_formula_sum   'Zr1 H2 C3 O4'
_cell_volume   94.6965842745
_cell_formula_units_Z   1
loop_
 _symmetry_equiv_pos_site_id
 _symmetry_equiv_pos_as_xyz
  1  'x, y, z'
loop_
 _atom_site_type_symbol
 _atom_site_label
 _atom_site_symmetry_multiplicity
 _atom_site_fract_x
 _atom_site_fract_y
 _atom_site_fract_z
 _atom_site_occupancy
  Zr  Zr1  1  0.164298  0.312441  0.502013  1
  O  O2  1  0.324884  0.793488  0.553128  1
  O  O3  1  0.642775  0.264766  0.670776  1
  O  O4  1  0.584051  0.259194  0.202257  1
  O  O5  1  0.899663  0.588965  0.217646  1
  C  C6  1  0.619380  0.600503  0.695047  1
  C  C7  1  0.483767  0.724654  0.933924  1
  C  C8  1  0.665175  0.509221  0.124192  1
  H  H9  1  0.193006  0.760581  0.960850  1
  H  H10  1  0.518691  0.959797  0.945858  1
 
# Source:                            Huan_etal:SciDat(submitted)                                                     
# Class:                             organometallic_polymer_crystal                                                  
# Label:                             Zr-based_polymer                                                                
# Structure prediction method used:  minima-hopping                                                                  
# Number of atoms:                    10
# Number of atom types:                4
# Atom types:                        Zr  O  C  H
# Dielectric constant, electronic:   4.33693E+00
# Dielectric constant, ionic:        5.80783E+00
# Dielectric constant, total:        1.01448E+01
# Band gap at the GGA level (eV):    1.30300E+00
# Band gap at the HSE06 level (eV):  2.55710E+00
# Atomization energy (eV/atom):     -6.74734E+00
# Volume of the unit cell (A^3):     9.46966E+01
