# generated using pymatgen
data_ZrH4(CO)4
_symmetry_space_group_name_H-M   'P 1'
_cell_length_a   3.38699776
_cell_length_b   5.88847755
_cell_length_c   7.05909738
_cell_angle_alpha   113.72158979
_cell_angle_beta   93.66206916
_cell_angle_gamma   98.54354202
_symmetry_Int_Tables_number   1
_chemical_formula_structural   ZrH4(CO)4
_chemical_formula_sum   'Zr1 H4 C4 O4'
_cell_volume   126.268974722
_cell_formula_units_Z   1
loop_
 _symmetry_equiv_pos_site_id
 _symmetry_equiv_pos_as_xyz
  1  'x, y, z'
loop_
 _atom_site_type_symbol
 _atom_site_label
 _atom_site_symmetry_multiplicity
 _atom_site_fract_x
 _atom_site_fract_y
 _atom_site_fract_z
 _atom_site_occupancy
  Zr  Zr1  1  0.115030  0.145351  0.990022  1
  O  O2  1  0.153638  0.250792  0.669247  1
  O  O3  1  0.486798  0.739106  0.543657  1
  O  O4  1  0.499671  0.835239  0.894299  1
  O  O5  1  0.263664  0.578841  0.121789  1
  C  C6  1  0.322574  0.226917  0.522584  1
  C  C7  1  0.772288  0.280963  0.277935  1
  C  C8  1  0.671410  0.848750  0.721597  1
  C  C9  1  0.455221  0.168853  0.341729  1
  H  H10  1  0.384491  0.657617  0.033205  1
  H  H11  1  0.928926  0.463588  0.396116  1
  H  H12  1  0.653537  0.261330  0.916533  1
  H  H13  1  0.399163  0.675251  0.266695  1
 
# Source:                            Huan_etal:SciDat(submitted)                                                     
# Class:                             organometallic_polymer_crystal                                                  
# Label:                             Zr-based_polymer                                                                
# Structure prediction method used:  minima-hopping                                                                  
# Number of atoms:                    13
# Number of atom types:                4
# Atom types:                        Zr  O  C  H
# Dielectric constant, electronic:   7.16106E+00
# Dielectric constant, ionic:        5.51161E+00
# Dielectric constant, total:        1.26727E+01
# Band gap at the GGA level (eV):    3.24000E-02
# Band gap at the HSE06 level (eV):  9.02400E-01
# Atomization energy (eV/atom):     -6.01698E+00
# Volume of the unit cell (A^3):     1.26269E+02
