# generated using pymatgen
data_ZrH6C5O4
_symmetry_space_group_name_H-M   'P 1'
_cell_length_a   4.06581311
_cell_length_b   4.65875603
_cell_length_c   8.39442467
_cell_angle_alpha   95.30953858
_cell_angle_beta   96.51875280
_cell_angle_gamma   115.22427536
_symmetry_Int_Tables_number   1
_chemical_formula_structural   ZrH6C5O4
_chemical_formula_sum   'Zr1 H6 C5 O4'
_cell_volume   141.145103158
_cell_formula_units_Z   1
loop_
 _symmetry_equiv_pos_site_id
 _symmetry_equiv_pos_as_xyz
  1  'x, y, z'
loop_
 _atom_site_type_symbol
 _atom_site_label
 _atom_site_symmetry_multiplicity
 _atom_site_fract_x
 _atom_site_fract_y
 _atom_site_fract_z
 _atom_site_occupancy
  Zr  Zr1  1  0.033641  0.208971  0.289866  1
  O  O2  1  0.544776  0.254592  0.272694  1
  O  O3  1  0.058606  0.886074  0.458999  1
  O  O4  1  0.369266  0.985638  0.906890  1
  O  O5  1  0.618395  0.767188  0.143159  1
  C  C6  1  0.042065  0.619119  0.494629  1
  C  C7  1  0.858042  0.521882  0.640554  1
  C  C8  1  0.280713  0.579011  0.089395  1
  C  C9  1  0.058960  0.431752  0.781510  1
  C  C10  1  0.130871  0.666484  0.936405  1
  H  H11  1  0.454322  0.127413  0.012098  1
  H  H12  1  0.866793  0.659106  0.955879  1
  H  H13  1  0.601184  0.307424  0.591419  1
  H  H14  1  0.786620  0.712394  0.685375  1
  H  H15  1  0.317874  0.439904  0.756522  1
  H  H16  1  0.888021  0.189748  0.801875  1
 
# Source:                            Huan_etal:SciDat(submitted)                                                     
# Class:                             organometallic_polymer_crystal                                                  
# Label:                             Zr-based_polymer                                                                
# Structure prediction method used:  minima-hopping                                                                  
# Number of atoms:                    16
# Number of atom types:                4
# Atom types:                        Zr  O  C  H
# Dielectric constant, electronic:   4.43434E+00
# Dielectric constant, ionic:        4.66829E+00
# Dielectric constant, total:        9.10264E+00
# Band gap at the GGA level (eV):    1.07900E+00
# Band gap at the HSE06 level (eV):  2.43990E+00
# Atomization energy (eV/atom):     -5.97961E+00
# Volume of the unit cell (A^3):     1.41145E+02
