# generated using pymatgen
data_ZrH6C5O4
_symmetry_space_group_name_H-M   'P 1'
_cell_length_a   5.20008017
_cell_length_b   5.76115242
_cell_length_c   6.01845899
_cell_angle_alpha   107.94203776
_cell_angle_beta   98.38947615
_cell_angle_gamma   111.56299098
_symmetry_Int_Tables_number   1
_chemical_formula_structural   ZrH6C5O4
_chemical_formula_sum   'Zr1 H6 C5 O4'
_cell_volume   152.535688815
_cell_formula_units_Z   1
loop_
 _symmetry_equiv_pos_site_id
 _symmetry_equiv_pos_as_xyz
  1  'x, y, z'
loop_
 _atom_site_type_symbol
 _atom_site_label
 _atom_site_symmetry_multiplicity
 _atom_site_fract_x
 _atom_site_fract_y
 _atom_site_fract_z
 _atom_site_occupancy
  Zr  Zr1  1  0.327561  0.769600  0.657029  1
  O  O2  1  0.471299  0.463725  0.701811  1
  O  O3  1  0.882079  0.383780  0.461262  1
  O  O4  1  0.178846  0.786690  0.954932  1
  O  O5  1  0.144215  0.952427  0.433492  1
  C  C6  1  0.479696  0.491595  0.110147  1
  C  C7  1  0.794568  0.065665  0.852213  1
  C  C8  1  0.414641  0.581012  0.295848  1
  C  C9  1  0.706461  0.251407  0.879874  1
  C  C10  1  0.551109  0.397266  0.893579  1
  H  H11  1  0.201541  0.657335  0.021768  1
  H  H12  1  0.010059  0.083458  0.905834  1
  H  H13  1  0.812365  0.286290  0.283482  1
  H  H14  1  0.719738  0.409092  0.516705  1
  H  H15  1  0.119148  0.897887  0.254848  1
  H  H16  1  0.230846  0.156822  0.507327  1
 
# Source:                            Huan_etal:SciDat(submitted)                                                     
# Class:                             organometallic_polymer_crystal                                                  
# Label:                             Zr-based_polymer                                                                
# Structure prediction method used:  minima-hopping                                                                  
# Number of atoms:                    16
# Number of atom types:                4
# Atom types:                        Zr  O  C  H
# Dielectric constant, electronic:   4.73848E+00
# Dielectric constant, ionic:        4.39215E+00
# Dielectric constant, total:        9.13063E+00
# Band gap at the GGA level (eV):    1.48520E+00
# Band gap at the HSE06 level (eV):  2.31520E+00
# Atomization energy (eV/atom):     -5.96214E+00
# Volume of the unit cell (A^3):     1.52536E+02
