# generated using pymatgen
data_ZrH6C5O4
_symmetry_space_group_name_H-M   'P 1'
_cell_length_a   3.61687219
_cell_length_b   4.26851825
_cell_length_c   8.62133564
_cell_angle_alpha   79.72037871
_cell_angle_beta   81.71772109
_cell_angle_gamma   68.68432543
_symmetry_Int_Tables_number   1
_chemical_formula_structural   ZrH6C5O4
_chemical_formula_sum   'Zr1 H6 C5 O4'
_cell_volume   121.550430788
_cell_formula_units_Z   1
loop_
 _symmetry_equiv_pos_site_id
 _symmetry_equiv_pos_as_xyz
  1  'x, y, z'
loop_
 _atom_site_type_symbol
 _atom_site_label
 _atom_site_symmetry_multiplicity
 _atom_site_fract_x
 _atom_site_fract_y
 _atom_site_fract_z
 _atom_site_occupancy
  Zr  Zr1  1  0.118272  0.135397  0.330611  1
  O  O2  1  0.754751  0.739258  0.347563  1
  O  O3  1  0.500085  0.318876  0.460428  1
  O  O4  1  0.170409  0.968042  0.095102  1
  O  O5  1  0.571272  0.331519  0.143791  1
  C  C6  1  0.479508  0.652144  0.485069  1
  C  C7  1  0.660557  0.617720  0.639063  1
  C  C8  1  0.831583  0.150635  0.045818  1
  C  C9  1  0.477382  0.485530  0.799729  1
  C  C10  1  0.758151  0.148246  0.878929  1
  H  H11  1  0.644295  0.942845  0.887261  1
  H  H12  1  0.042206  0.071907  0.809636  1
  H  H13  1  0.684548  0.861819  0.645105  1
  H  H14  1  0.963531  0.441574  0.621927  1
  H  H15  1  0.196640  0.463809  0.787776  1
  H  H16  1  0.410128  0.664750  0.882862  1
 
# Source:                            Huan_etal:SciDat(submitted)                                                     
# Class:                             organometallic_polymer_crystal                                                  
# Label:                             Zr-based_polymer                                                                
# Structure prediction method used:  minima-hopping                                                                  
# Number of atoms:                    16
# Number of atom types:                4
# Atom types:                        Zr  O  C  H
# Dielectric constant, electronic:   4.11158E+00
# Dielectric constant, ionic:        5.58634E+00
# Dielectric constant, total:        9.69792E+00
# Band gap at the GGA level (eV):    2.48430E+00
# Band gap at the HSE06 level (eV):  3.78040E+00
# Atomization energy (eV/atom):     -6.10643E+00
# Volume of the unit cell (A^3):     1.21550E+02
