# generated using pymatgen
data_ZrH8(C3O2)2
_symmetry_space_group_name_H-M   'P 1'
_cell_length_a   3.72491302
_cell_length_b   4.63972619
_cell_length_c   9.30810976
_cell_angle_alpha   79.10470151
_cell_angle_beta   88.32720929
_cell_angle_gamma   76.51349185
_symmetry_Int_Tables_number   1
_chemical_formula_structural   ZrH8(C3O2)2
_chemical_formula_sum   'Zr1 H8 C6 O4'
_cell_volume   153.593671706
_cell_formula_units_Z   1
loop_
 _symmetry_equiv_pos_site_id
 _symmetry_equiv_pos_as_xyz
  1  'x, y, z'
loop_
 _atom_site_type_symbol
 _atom_site_label
 _atom_site_symmetry_multiplicity
 _atom_site_fract_x
 _atom_site_fract_y
 _atom_site_fract_z
 _atom_site_occupancy
  Zr  Zr1  1  0.038387  0.842048  0.301442  1
  O  O2  1  0.977189  0.162109  0.417486  1
  O  O3  1  0.589421  0.639068  0.361532  1
  O  O4  1  0.167845  0.616386  0.105891  1
  O  O5  1  0.491187  0.132905  0.166955  1
  C  C6  1  0.882741  0.446769  0.457163  1
  C  C7  1  0.789491  0.412631  0.619120  1
  C  C8  1  0.398183  0.386125  0.075593  1
  C  C9  1  0.564568  0.699504  0.665688  1
  C  C10  1  0.573460  0.694789  0.831405  1
  C  C11  1  0.542205  0.390119  0.922289  1
  H  H12  1  0.800191  0.218010  0.927645  1
  H  H13  1  0.343629  0.301995  0.868690  1
  H  H14  1  0.824853  0.749846  0.863923  1
  H  H15  1  0.343815  0.869218  0.858659  1
  H  H16  1  0.050689  0.325329  0.680658  1
  H  H17  1  0.634075  0.238124  0.645973  1
  H  H18  1  0.279131  0.735730  0.629817  1
  H  H19  1  0.660320  0.891884  0.606941  1
 
# Source:                            Huan_etal:SciDat(submitted)                                                     
# Class:                             organometallic_polymer_crystal                                                  
# Label:                             Zr-based_polymer                                                                
# Structure prediction method used:  minima-hopping                                                                  
# Number of atoms:                    19
# Number of atom types:                4
# Atom types:                        Zr  O  C  H
# Dielectric constant, electronic:   3.81296E+00
# Dielectric constant, ionic:        2.63776E+00
# Dielectric constant, total:        6.45072E+00
# Band gap at the GGA level (eV):    1.89270E+00
# Band gap at the HSE06 level (eV):  3.16760E+00
# Atomization energy (eV/atom):     -6.02387E+00
# Volume of the unit cell (A^3):     1.53594E+02
