# generated using pymatgen
data_HfH2C3O4
_symmetry_space_group_name_H-M   'P 1'
_cell_length_a   4.19625757
_cell_length_b   4.48341017
_cell_length_c   5.73533104
_cell_angle_alpha   83.89230216
_cell_angle_beta   78.41355129
_cell_angle_gamma   67.16393900
_symmetry_Int_Tables_number   1
_chemical_formula_structural   HfH2C3O4
_chemical_formula_sum   'Hf1 H2 C3 O4'
_cell_volume   97.3696698261
_cell_formula_units_Z   1
loop_
 _symmetry_equiv_pos_site_id
 _symmetry_equiv_pos_as_xyz
  1  'x, y, z'
loop_
 _atom_site_type_symbol
 _atom_site_label
 _atom_site_symmetry_multiplicity
 _atom_site_fract_x
 _atom_site_fract_y
 _atom_site_fract_z
 _atom_site_occupancy
  Hf  Hf1  1  0.743525  0.162732  0.560017  1
  O  O2  1  0.077745  0.720343  0.487975  1
  O  O3  1  0.435635  0.225638  0.327919  1
  O  O4  1  0.302828  0.146308  0.834895  1
  O  O5  1  0.734914  0.432987  0.851386  1
  C  C6  1  0.081546  0.454018  0.350678  1
  C  C7  1  0.007922  0.607100  0.103317  1
  C  C8  1  0.020763  0.382542  0.923728  1
  H  H9  1  0.205021  0.711001  0.031390  1
  H  H10  1  0.746091  0.795692  0.126034  1
 
# Source:                            Huan_etal:SciDat(submitted)                                                     
# Class:                             organometallic_polymer_crystal                                                  
# Label:                             Hf-based_polymer                                                                
# Structure prediction method used:  minima-hopping                                                                  
# Number of atoms:                    10
# Number of atom types:                4
# Atom types:                        Hf  O  C  H
# Dielectric constant, electronic:   4.03686E+00
# Dielectric constant, ionic:        2.95939E+00
# Dielectric constant, total:        6.99625E+00
# Band gap at the GGA level (eV):    2.34430E+00
# Band gap at the HSE06 level (eV):  3.70140E+00
# Atomization energy (eV/atom):     -6.76431E+00
# Volume of the unit cell (A^3):     9.73697E+01
