# generated using pymatgen
data_HfH6C5O4
_symmetry_space_group_name_H-M   'P 1'
_cell_length_a   3.50897789
_cell_length_b   4.09242165
_cell_length_c   9.00969265
_cell_angle_alpha   81.83633052
_cell_angle_beta   83.99808028
_cell_angle_gamma   67.42591884
_symmetry_Int_Tables_number   1
_chemical_formula_structural   HfH6C5O4
_chemical_formula_sum   'Hf1 H6 C5 O4'
_cell_volume   118.080405082
_cell_formula_units_Z   1
loop_
 _symmetry_equiv_pos_site_id
 _symmetry_equiv_pos_as_xyz
  1  'x, y, z'
loop_
 _atom_site_type_symbol
 _atom_site_label
 _atom_site_symmetry_multiplicity
 _atom_site_fract_x
 _atom_site_fract_y
 _atom_site_fract_z
 _atom_site_occupancy
  Hf  Hf1  1  0.068451  0.961747  0.327427  1
  O  O2  1  0.741456  0.566948  0.341646  1
  O  O3  1  0.474974  0.142720  0.464629  1
  O  O4  1  0.194433  0.773860  0.091175  1
  O  O5  1  0.474611  0.197693  0.174365  1
  C  C6  1  0.445754  0.487902  0.487408  1
  C  C7  1  0.653168  0.456638  0.632085  1
  C  C8  1  0.397481  0.456520  0.066376  1
  C  C9  1  0.396147  0.612405  0.773882  1
  C  C10  1  0.578518  0.357517  0.912713  1
  H  H11  1  0.573862  0.095528  0.906585  1
  H  H12  1  0.906291  0.305812  0.915584  1
  H  H13  1  0.872015  0.584873  0.604222  1
  H  H14  1  0.832896  0.174699  0.661049  1
  H  H15  1  0.073204  0.655429  0.771695  1
  H  H16  1  0.403807  0.873839  0.778951  1
 
# Source:                            Huan_etal:SciDat(submitted)                                                     
# Class:                             organometallic_polymer_crystal                                                  
# Label:                             Hf-based_polymer                                                                
# Structure prediction method used:  minima-hopping                                                                  
# Number of atoms:                    16
# Number of atom types:                4
# Atom types:                        Hf  O  C  H
# Dielectric constant, electronic:   4.01792E+00
# Dielectric constant, ionic:        5.13034E+00
# Dielectric constant, total:        9.14826E+00
# Band gap at the GGA level (eV):    2.36230E+00
# Band gap at the HSE06 level (eV):  3.79800E+00
# Atomization energy (eV/atom):     -6.14034E+00
# Volume of the unit cell (A^3):     1.18080E+02
