# generated using pymatgen
data_HfH6C5O4
_symmetry_space_group_name_H-M   'P 1'
_cell_length_a   3.50691974
_cell_length_b   4.09423314
_cell_length_c   9.01393727
_cell_angle_alpha   81.84292048
_cell_angle_beta   83.93545323
_cell_angle_gamma   67.39360451
_symmetry_Int_Tables_number   1
_chemical_formula_structural   HfH6C5O4
_chemical_formula_sum   'Hf1 H6 C5 O4'
_cell_volume   118.085579172
_cell_formula_units_Z   1
loop_
 _symmetry_equiv_pos_site_id
 _symmetry_equiv_pos_as_xyz
  1  'x, y, z'
loop_
 _atom_site_type_symbol
 _atom_site_label
 _atom_site_symmetry_multiplicity
 _atom_site_fract_x
 _atom_site_fract_y
 _atom_site_fract_z
 _atom_site_occupancy
  Hf  Hf1  1  0.072079  0.962421  0.326967  1
  O  O2  1  0.744850  0.567942  0.341091  1
  O  O3  1  0.477784  0.143854  0.464331  1
  O  O4  1  0.199215  0.773814  0.090721  1
  O  O5  1  0.478950  0.197986  0.174082  1
  C  C6  1  0.448052  0.488781  0.487104  1
  C  C7  1  0.655256  0.458532  0.631508  1
  C  C8  1  0.400987  0.456314  0.065958  1
  C  C9  1  0.396953  0.611770  0.773674  1
  C  C10  1  0.579342  0.356131  0.912143  1
  H  H11  1  0.571048  0.095388  0.906407  1
  H  H12  1  0.908172  0.301533  0.914348  1
  H  H13  1  0.870639  0.590286  0.603550  1
  H  H14  1  0.839241  0.177364  0.659913  1
  H  H15  1  0.074029  0.654235  0.771355  1
  H  H16  1  0.403323  0.873188  0.779467  1
 
# Source:                            Huan_etal:SciDat(submitted)                                                     
# Class:                             organometallic_polymer_crystal                                                  
# Label:                             Hf-based_polymer                                                                
# Structure prediction method used:  minima-hopping                                                                  
# Number of atoms:                    16
# Number of atom types:                4
# Atom types:                        Hf  O  C  H
# Dielectric constant, electronic:   4.01838E+00
# Dielectric constant, ionic:        4.94113E+00
# Dielectric constant, total:        8.95951E+00
# Band gap at the GGA level (eV):    2.38020E+00
# Band gap at the HSE06 level (eV):  3.81910E+00
# Atomization energy (eV/atom):     -6.14037E+00
# Volume of the unit cell (A^3):     1.18086E+02
