# generated using pymatgen
data_HfH8(C3O2)2
_symmetry_space_group_name_H-M   'P 1'
_cell_length_a   3.72312854
_cell_length_b   4.62891913
_cell_length_c   9.27580038
_cell_angle_alpha   79.32671367
_cell_angle_beta   88.41744997
_cell_angle_gamma   75.34326693
_symmetry_Int_Tables_number   1
_chemical_formula_structural   HfH8(C3O2)2
_chemical_formula_sum   'Hf1 H8 C6 O4'
_cell_volume   151.950893065
_cell_formula_units_Z   1
loop_
 _symmetry_equiv_pos_site_id
 _symmetry_equiv_pos_as_xyz
  1  'x, y, z'
loop_
 _atom_site_type_symbol
 _atom_site_label
 _atom_site_symmetry_multiplicity
 _atom_site_fract_x
 _atom_site_fract_y
 _atom_site_fract_z
 _atom_site_occupancy
  Hf  Hf1  1  0.034427  0.840149  0.300583  1
  O  O2  1  0.979561  0.161984  0.415372  1
  O  O3  1  0.586112  0.647455  0.356205  1
  O  O4  1  0.169031  0.630332  0.103769  1
  O  O5  1  0.501473  0.143079  0.166403  1
  C  C6  1  0.888753  0.449130  0.454609  1
  C  C7  1  0.790203  0.417364  0.616404  1
  C  C8  1  0.406251  0.396266  0.074364  1
  C  C9  1  0.555505  0.706083  0.663147  1
  C  C10  1  0.573126  0.704611  0.828861  1
  C  C11  1  0.553516  0.398487  0.921310  1
  H  H12  1  0.818156  0.227013  0.928121  1
  H  H13  1  0.361477  0.305220  0.867499  1
  H  H14  1  0.824953  0.761076  0.858957  1
  H  H15  1  0.340361  0.880494  0.857233  1
  H  H16  1  0.052966  0.330794  0.678870  1
  H  H17  1  0.640809  0.240787  0.642876  1
  H  H18  1  0.267813  0.737355  0.630184  1
  H  H19  1  0.638088  0.901561  0.602012  1
 
# Source:                            Huan_etal:SciDat(submitted)                                                     
# Class:                             organometallic_polymer_crystal                                                  
# Label:                             Hf-based_polymer                                                                
# Structure prediction method used:  minima-hopping                                                                  
# Number of atoms:                    19
# Number of atom types:                4
# Atom types:                        Hf  O  C  H
# Dielectric constant, electronic:   3.67318E+00
# Dielectric constant, ionic:        2.84319E+00
# Dielectric constant, total:        6.51637E+00
# Band gap at the GGA level (eV):    1.96370E+00
# Band gap at the HSE06 level (eV):  3.30740E+00
# Atomization energy (eV/atom):     -6.02259E+00
# Volume of the unit cell (A^3):     1.51951E+02
