# generated using pymatgen
data_HfH8(C3O2)2
_symmetry_space_group_name_H-M   'P 1'
_cell_length_a   3.74968518
_cell_length_b   4.73439323
_cell_length_c   9.37112654
_cell_angle_alpha   79.23304051
_cell_angle_beta   89.40239956
_cell_angle_gamma   71.60750112
_symmetry_Int_Tables_number   1
_chemical_formula_structural   HfH8(C3O2)2
_chemical_formula_sum   'Hf1 H8 C6 O4'
_cell_volume   154.873313722
_cell_formula_units_Z   1
loop_
 _symmetry_equiv_pos_site_id
 _symmetry_equiv_pos_as_xyz
  1  'x, y, z'
loop_
 _atom_site_type_symbol
 _atom_site_label
 _atom_site_symmetry_multiplicity
 _atom_site_fract_x
 _atom_site_fract_y
 _atom_site_fract_z
 _atom_site_occupancy
  Hf  Hf1  1  0.372692  0.861361  0.301369  1
  O  O2  1  0.299075  0.200214  0.402041  1
  O  O3  1  0.930350  0.706190  0.375444  1
  O  O4  1  0.521169  0.636929  0.119315  1
  O  O5  1  0.857309  0.140326  0.145152  1
  C  C6  1  0.262171  0.467884  0.451074  1
  C  C7  1  0.227787  0.424596  0.615184  1
  C  C8  1  0.636210  0.389620  0.071669  1
  C  C9  1  0.218726  0.708400  0.673076  1
  C  C10  1  0.222146  0.680755  0.839276  1
  C  C11  1  0.501006  0.382630  0.921174  1
  H  H12  1  0.753257  0.308163  0.860201  1
  H  H13  1  0.383296  0.195719  0.934447  1
  H  H14  1  0.299003  0.869898  0.865320  1
  H  H15  1  0.941783  0.708469  0.879955  1
  H  H16  1  0.470969  0.232439  0.663657  1
  H  H17  1  0.977323  0.357978  0.643652  1
  H  H18  1  0.974320  0.897162  0.623161  1
  H  H19  1  0.463429  0.772277  0.634554  1
 
# Source:                            Huan_etal:SciDat(submitted)                                                     
# Class:                             organometallic_polymer_crystal                                                  
# Label:                             Hf-based_polymer                                                                
# Structure prediction method used:  minima-hopping                                                                  
# Number of atoms:                    19
# Number of atom types:                4
# Atom types:                        Hf  O  C  H
# Dielectric constant, electronic:   3.62507E+00
# Dielectric constant, ionic:        2.84485E+00
# Dielectric constant, total:        6.46992E+00
# Band gap at the GGA level (eV):    2.01470E+00
# Band gap at the HSE06 level (eV):  3.32810E+00
# Atomization energy (eV/atom):     -6.02360E+00
# Volume of the unit cell (A^3):     1.54873E+02
