# generated using pymatgen
data_HfH8(C3O2)2
_symmetry_space_group_name_H-M   'P 1'
_cell_length_a   3.72007460
_cell_length_b   4.67561814
_cell_length_c   9.39604784
_cell_angle_alpha   102.04519163
_cell_angle_beta   92.61279150
_cell_angle_gamma   106.10466557
_symmetry_Int_Tables_number   1
_chemical_formula_structural   HfH8(C3O2)2
_chemical_formula_sum   'Hf1 H8 C6 O4'
_cell_volume   152.626935971
_cell_formula_units_Z   1
loop_
 _symmetry_equiv_pos_site_id
 _symmetry_equiv_pos_as_xyz
  1  'x, y, z'
loop_
 _atom_site_type_symbol
 _atom_site_label
 _atom_site_symmetry_multiplicity
 _atom_site_fract_x
 _atom_site_fract_y
 _atom_site_fract_z
 _atom_site_occupancy
  Hf  Hf1  1  0.588302  0.850637  0.694460  1
  O  O2  1  0.607488  0.168345  0.585418  1
  O  O3  1  0.020812  0.661810  0.635626  1
  O  O4  1  0.500003  0.654826  0.885050  1
  O  O5  1  0.127737  0.165326  0.842398  1
  C  C6  1  0.689361  0.446069  0.541663  1
  C  C7  1  0.750857  0.390648  0.380371  1
  C  C8  1  0.362029  0.405090  0.924924  1
  C  C9  1  0.910039  0.682382  0.325245  1
  C  C10  1  0.769779  0.681877  0.166458  1
  C  C11  1  0.497419  0.382699  0.075566  1
  H  H12  1  0.246733  0.302924  0.129671  1
  H  H13  1  0.624135  0.194327  0.057927  1
  H  H14  1  0.628727  0.859023  0.171466  1
  H  H15  1  0.009210  0.750206  0.104863  1
  H  H16  1  0.478464  0.251075  0.321310  1
  H  H17  1  0.942228  0.250166  0.362131  1
  H  H18  1  0.216179  0.739803  0.337805  1
  H  H19  1  0.847857  0.869487  0.399647  1
 
# Source:                            Huan_etal:SciDat(submitted)                                                     
# Class:                             organometallic_polymer_crystal                                                  
# Label:                             Hf-based_polymer                                                                
# Structure prediction method used:  minima-hopping                                                                  
# Number of atoms:                    19
# Number of atom types:                4
# Atom types:                        Hf  O  C  H
# Dielectric constant, electronic:   3.61295E+00
# Dielectric constant, ionic:        3.33120E+00
# Dielectric constant, total:        6.94415E+00
# Band gap at the GGA level (eV):    2.26930E+00
# Band gap at the HSE06 level (eV):  3.59880E+00
# Atomization energy (eV/atom):     -6.01314E+00
# Volume of the unit cell (A^3):     1.52627E+02
