# generated using pymatgen
data_CdH2C3O4
_symmetry_space_group_name_H-M   'P 1'
_cell_length_a   3.63966092
_cell_length_b   4.16463724
_cell_length_c   6.41168185
_cell_angle_alpha   84.09357782
_cell_angle_beta   87.81956979
_cell_angle_gamma   82.07104530
_symmetry_Int_Tables_number   1
_chemical_formula_structural   CdH2C3O4
_chemical_formula_sum   'Cd1 H2 C3 O4'
_cell_volume   95.7192278206
_cell_formula_units_Z   1
loop_
 _symmetry_equiv_pos_site_id
 _symmetry_equiv_pos_as_xyz
  1  'x, y, z'
loop_
 _atom_site_type_symbol
 _atom_site_label
 _atom_site_symmetry_multiplicity
 _atom_site_fract_x
 _atom_site_fract_y
 _atom_site_fract_z
 _atom_site_occupancy
  C  C1  1  0.012397  0.306222  0.807744  1
  C  C2  1  0.756367  0.233663  0.196624  1
  C  C3  1  0.928522  0.093643  0.002725  1
  H  H4  1  0.734439  0.937350  0.955783  1
  H  H5  1  0.174552  0.923663  0.044621  1
  O  O6  1  0.528610  0.494941  0.188598  1
  O  O7  1  0.830575  0.054829  0.371224  1
  O  O8  1  0.833261  0.587857  0.758339  1
  O  O9  1  0.282688  0.194030  0.689648  1
  Cd  Cd10  1  0.359572  0.717280  0.505671  1
 
# Source:                            Huan_etal:SciDat(submitted)                                                     
# Class:                             organometallic_polymer_crystal                                                  
# Label:                             Cd-based_polymer                                                                
# Structure prediction method used:  minima-hopping                                                                  
# Number of atoms:                    10
# Number of atom types:                4
# Atom types:                         C  H  O Cd
# Dielectric constant, electronic:   3.34754E+00
# Dielectric constant, ionic:        3.55288E+00
# Dielectric constant, total:        6.90043E+00
# Band gap at the GGA level (eV):    3.64190E+00
# Band gap at the HSE06 level (eV):  5.44830E+00
# Atomization energy (eV/atom):     -5.88510E+00
# Volume of the unit cell (A^3):     9.57192E+01
