# generated using pymatgen
data_CdH2C3O4
_symmetry_space_group_name_H-M   'P 1'
_cell_length_a   3.64369377
_cell_length_b   4.16495985
_cell_length_c   6.40782704
_cell_angle_alpha   84.11538487
_cell_angle_beta   87.83134314
_cell_angle_gamma   82.05647877
_symmetry_Int_Tables_number   1
_chemical_formula_structural   CdH2C3O4
_chemical_formula_sum   'Cd1 H2 C3 O4'
_cell_volume   95.7758840336
_cell_formula_units_Z   1
loop_
 _symmetry_equiv_pos_site_id
 _symmetry_equiv_pos_as_xyz
  1  'x, y, z'
loop_
 _atom_site_type_symbol
 _atom_site_label
 _atom_site_symmetry_multiplicity
 _atom_site_fract_x
 _atom_site_fract_y
 _atom_site_fract_z
 _atom_site_occupancy
  C  C1  1  0.135004  0.211807  0.814766  1
  C  C2  1  0.879437  0.139425  0.203756  1
  C  C3  1  0.963196  0.352096  0.008770  1
  H  H4  1  0.157713  0.507936  0.055606  1
  H  H5  1  0.717496  0.522417  0.967066  1
  O  O6  1  0.058647  0.857873  0.253035  1
  O  O7  1  0.609144  0.251416  0.321894  1
  O  O8  1  0.362750  0.950548  0.822901  1
  O  O9  1  0.060664  0.390568  0.640099  1
  Cd  Cd10  1  0.531794  0.728385  0.505625  1
 
# Source:                            Huan_etal:SciDat(submitted)                                                     
# Class:                             organometallic_polymer_crystal                                                  
# Label:                             Cd-based_polymer                                                                
# Structure prediction method used:  minima-hopping                                                                  
# Number of atoms:                    10
# Number of atom types:                4
# Atom types:                         C  H  O Cd
# Dielectric constant, electronic:   3.34732E+00
# Dielectric constant, ionic:        3.57179E+00
# Dielectric constant, total:        6.91911E+00
# Band gap at the GGA level (eV):    3.63900E+00
# Band gap at the HSE06 level (eV):  5.44390E+00
# Atomization energy (eV/atom):     -5.88521E+00
# Volume of the unit cell (A^3):     9.57759E+01
