# generated using pymatgen
data_CdH2C3O4
_symmetry_space_group_name_H-M   'P 1'
_cell_length_a   3.64548793
_cell_length_b   4.16872245
_cell_length_c   6.40444313
_cell_angle_alpha   84.11151619
_cell_angle_beta   87.85682581
_cell_angle_gamma   81.97591676
_symmetry_Int_Tables_number   1
_chemical_formula_structural   CdH2C3O4
_chemical_formula_sum   'Cd1 H2 C3 O4'
_cell_volume   95.8407591272
_cell_formula_units_Z   1
loop_
 _symmetry_equiv_pos_site_id
 _symmetry_equiv_pos_as_xyz
  1  'x, y, z'
loop_
 _atom_site_type_symbol
 _atom_site_label
 _atom_site_symmetry_multiplicity
 _atom_site_fract_x
 _atom_site_fract_y
 _atom_site_fract_z
 _atom_site_occupancy
  C  C1  1  0.656158  0.184583  0.189324  1
  C  C2  1  0.912972  0.257427  0.800357  1
  C  C3  1  0.829557  0.044946  0.995364  1
  H  H4  1  0.075773  0.875441  0.037485  1
  H  H5  1  0.636678  0.888315  0.948098  1
  O  O6  1  0.733497  0.538840  0.751046  1
  O  O7  1  0.183029  0.145307  0.682117  1
  O  O8  1  0.428814  0.446048  0.181217  1
  O  O9  1  0.729484  0.005053  0.363916  1
  Cd  Cd10  1  0.259234  0.668122  0.498500  1
 
# Source:                            Huan_etal:SciDat(submitted)                                                     
# Class:                             organometallic_polymer_crystal                                                  
# Label:                             Cd-based_polymer                                                                
# Structure prediction method used:  minima-hopping                                                                  
# Number of atoms:                    10
# Number of atom types:                4
# Atom types:                         C  H  O Cd
# Dielectric constant, electronic:   3.34624E+00
# Dielectric constant, ionic:        3.57021E+00
# Dielectric constant, total:        6.91645E+00
# Band gap at the GGA level (eV):    3.64180E+00
# Band gap at the HSE06 level (eV):  5.44710E+00
# Atomization energy (eV/atom):     -5.88545E+00
# Volume of the unit cell (A^3):     9.58408E+01
