# generated using pymatgen
data_CdH2C3O4
_symmetry_space_group_name_H-M   'P 1'
_cell_length_a   3.79652539
_cell_length_b   5.03780974
_cell_length_c   5.86665856
_cell_angle_alpha   84.24734444
_cell_angle_beta   71.16516043
_cell_angle_gamma   68.01356796
_symmetry_Int_Tables_number   1
_chemical_formula_structural   CdH2C3O4
_chemical_formula_sum   'Cd1 H2 C3 O4'
_cell_volume   98.4476445683
_cell_formula_units_Z   1
loop_
 _symmetry_equiv_pos_site_id
 _symmetry_equiv_pos_as_xyz
  1  'x, y, z'
loop_
 _atom_site_type_symbol
 _atom_site_label
 _atom_site_symmetry_multiplicity
 _atom_site_fract_x
 _atom_site_fract_y
 _atom_site_fract_z
 _atom_site_occupancy
  C  C1  1  0.889219  0.332897  0.794165  1
  C  C2  1  0.778576  0.144910  0.205152  1
  C  C3  1  0.067414  0.239685  0.999678  1
  H  H4  1  0.347769  0.059484  0.939273  1
  H  H5  1  0.106618  0.420829  0.059929  1
  O  O6  1  0.453936  0.329226  0.327025  1
  O  O7  1  0.871131  0.873372  0.240950  1
  O  O8  1  0.745181  0.604242  0.758405  1
  O  O9  1  0.872057  0.147325  0.672266  1
  Cd  Cd10  1  0.357131  0.739071  0.499419  1
 
# Source:                            Huan_etal:SciDat(submitted)                                                     
# Class:                             organometallic_polymer_crystal                                                  
# Label:                             Cd-based_polymer                                                                
# Structure prediction method used:  minima-hopping                                                                  
# Number of atoms:                    10
# Number of atom types:                4
# Atom types:                         C  H  O Cd
# Dielectric constant, electronic:   3.24264E+00
# Dielectric constant, ionic:        4.02256E+00
# Dielectric constant, total:        7.26520E+00
# Band gap at the GGA level (eV):    3.46040E+00
# Band gap at the HSE06 level (eV):  5.29520E+00
# Atomization energy (eV/atom):     -5.87812E+00
# Volume of the unit cell (A^3):     9.84476E+01
