# generated using pymatgen
data_CdH2C3O4
_symmetry_space_group_name_H-M   'P 1'
_cell_length_a   3.31832667
_cell_length_b   4.67801166
_cell_length_c   6.88751696
_cell_angle_alpha   71.65092040
_cell_angle_beta   82.35716259
_cell_angle_gamma   77.86782896
_symmetry_Int_Tables_number   1
_chemical_formula_structural   CdH2C3O4
_chemical_formula_sum   'Cd1 H2 C3 O4'
_cell_volume   98.9558887786
_cell_formula_units_Z   1
loop_
 _symmetry_equiv_pos_site_id
 _symmetry_equiv_pos_as_xyz
  1  'x, y, z'
loop_
 _atom_site_type_symbol
 _atom_site_label
 _atom_site_symmetry_multiplicity
 _atom_site_fract_x
 _atom_site_fract_y
 _atom_site_fract_z
 _atom_site_occupancy
  C  C1  1  0.242321  0.813160  0.180973  1
  C  C2  1  0.004464  0.035782  0.826464  1
  C  C3  1  0.097636  0.059478  0.009938  1
  H  H4  1  0.126242  0.282890  0.012519  1
  H  H5  1  0.763896  0.658541  0.933563  1
  O  O6  1  0.890083  0.783898  0.804150  1
  O  O7  1  0.010191  0.257965  0.655091  1
  O  O8  1  0.404765  0.543977  0.159193  1
  O  O9  1  0.238464  0.855648  0.361414  1
  Cd  Cd10  1  0.619636  0.167504  0.441041  1
 
# Source:                            Huan_etal:SciDat(submitted)                                                     
# Class:                             organometallic_polymer_crystal                                                  
# Label:                             Cd-based_polymer                                                                
# Structure prediction method used:  minima-hopping                                                                  
# Number of atoms:                    10
# Number of atom types:                4
# Atom types:                         C  H  O Cd
# Dielectric constant, electronic:   3.65212E+00
# Dielectric constant, ionic:        4.65131E+00
# Dielectric constant, total:        8.30343E+00
# Band gap at the GGA level (eV):    2.25090E+00
# Band gap at the HSE06 level (eV):  3.52310E+00
# Atomization energy (eV/atom):     -5.79760E+00
# Volume of the unit cell (A^3):     9.89559E+01
