# generated using pymatgen
data_CdH4(CO)4
_symmetry_space_group_name_H-M   'P 1'
_cell_length_a   3.99810186
_cell_length_b   4.06113376
_cell_length_c   7.47432002
_cell_angle_alpha   82.21111662
_cell_angle_beta   82.89462727
_cell_angle_gamma   77.48952172
_symmetry_Int_Tables_number   1
_chemical_formula_structural   CdH4(CO)4
_chemical_formula_sum   'Cd1 H4 C4 O4'
_cell_volume   116.825032036
_cell_formula_units_Z   1
loop_
 _symmetry_equiv_pos_site_id
 _symmetry_equiv_pos_as_xyz
  1  'x, y, z'
loop_
 _atom_site_type_symbol
 _atom_site_label
 _atom_site_symmetry_multiplicity
 _atom_site_fract_x
 _atom_site_fract_y
 _atom_site_fract_z
 _atom_site_occupancy
  C  C1  1  0.773737  0.659272  0.458138  1
  C  C2  1  0.718924  0.922514  0.295489  1
  C  C3  1  0.590661  0.785030  0.136361  1
  C  C4  1  0.858760  0.734549  0.975989  1
  H  H5  1  0.519319  0.132917  0.336228  1
  H  H6  1  0.953434  0.017148  0.252272  1
  H  H7  1  0.372676  0.974339  0.091745  1
  H  H8  1  0.503500  0.549874  0.181843  1
  O  O9  1  0.541161  0.687575  0.595938  1
  O  O10  1  0.033195  0.416072  0.454194  1
  O  O11  1  0.834509  0.971538  0.839745  1
  O  O12  1  0.099699  0.474176  0.979663  1
  Cd  Cd13  1  0.307101  0.211903  0.716940  1
 
# Source:                            Huan_etal:SciDat(submitted)                                                     
# Class:                             organometallic_polymer_crystal                                                  
# Label:                             Cd-based_polymer                                                                
# Structure prediction method used:  minima-hopping                                                                  
# Number of atoms:                    13
# Number of atom types:                4
# Atom types:                         C  H  O Cd
# Dielectric constant, electronic:   3.17522E+00
# Dielectric constant, ionic:        3.42821E+00
# Dielectric constant, total:        6.60344E+00
# Band gap at the GGA level (eV):    3.65880E+00
# Band gap at the HSE06 level (eV):  5.53540E+00
# Atomization energy (eV/atom):     -5.71560E+00
# Volume of the unit cell (A^3):     1.16825E+02
