# generated using pymatgen
data_CdH4(CO)4
_symmetry_space_group_name_H-M   'P 1'
_cell_length_a   3.51117008
_cell_length_b   4.11386017
_cell_length_c   8.00906339
_cell_angle_alpha   96.07931531
_cell_angle_beta   90.76850602
_cell_angle_gamma   92.94464548
_symmetry_Int_Tables_number   1
_chemical_formula_structural   CdH4(CO)4
_chemical_formula_sum   'Cd1 H4 C4 O4'
_cell_volume   114.863429043
_cell_formula_units_Z   1
loop_
 _symmetry_equiv_pos_site_id
 _symmetry_equiv_pos_as_xyz
  1  'x, y, z'
loop_
 _atom_site_type_symbol
 _atom_site_label
 _atom_site_symmetry_multiplicity
 _atom_site_fract_x
 _atom_site_fract_y
 _atom_site_fract_z
 _atom_site_occupancy
  C  C1  1  0.967606  0.234963  0.522429  1
  C  C2  1  0.816400  0.114946  0.682868  1
  C  C3  1  0.784350  0.355303  0.835291  1
  C  C4  1  0.904408  0.298424  0.990423  1
  H  H5  1  0.546701  0.978548  0.649473  1
  H  H6  1  0.008199  0.922122  0.705355  1
  H  H7  1  0.580720  0.542406  0.828510  1
  H  H8  1  0.098746  0.860317  0.927550  1
  O  O9  1  0.877433  0.051677  0.383166  1
  O  O10  1  0.198870  0.482261  0.525062  1
  O  O11  1  0.135500  0.040164  0.018256  1
  O  O12  1  0.842642  0.481096  0.132622  1
  Cd  Cd13  1  0.360778  0.718995  0.274649  1
 
# Source:                            Huan_etal:SciDat(submitted)                                                     
# Class:                             organometallic_polymer_crystal                                                  
# Label:                             Cd-based_polymer                                                                
# Structure prediction method used:  minima-hopping                                                                  
# Number of atoms:                    13
# Number of atom types:                4
# Atom types:                         C  H  O Cd
# Dielectric constant, electronic:   3.44191E+00
# Dielectric constant, ionic:        4.56559E+00
# Dielectric constant, total:        8.00750E+00
# Band gap at the GGA level (eV):    2.05330E+00
# Band gap at the HSE06 level (eV):  3.42620E+00
# Atomization energy (eV/atom):     -5.60434E+00
# Volume of the unit cell (A^3):     1.14863E+02
