# generated using pymatgen
data_CdH6C5O4
_symmetry_space_group_name_H-M   'P 1'
_cell_length_a   3.89596077
_cell_length_b   4.33567780
_cell_length_c   8.33205098
_cell_angle_alpha   102.03514046
_cell_angle_beta   92.34202377
_cell_angle_gamma   100.50272049
_symmetry_Int_Tables_number   1
_chemical_formula_structural   CdH6C5O4
_chemical_formula_sum   'Cd1 H6 C5 O4'
_cell_volume   134.886276197
_cell_formula_units_Z   1
loop_
 _symmetry_equiv_pos_site_id
 _symmetry_equiv_pos_as_xyz
  1  'x, y, z'
loop_
 _atom_site_type_symbol
 _atom_site_label
 _atom_site_symmetry_multiplicity
 _atom_site_fract_x
 _atom_site_fract_y
 _atom_site_fract_z
 _atom_site_occupancy
  C  C1  1  0.983924  0.914225  0.534196  1
  C  C2  1  0.191011  0.941790  0.386021  1
  C  C3  1  0.978443  0.047654  0.254015  1
  C  C4  1  0.197970  0.192132  0.129430  1
  C  C5  1  0.286878  0.964605  0.981592  1
  H  H6  1  0.423792  0.126777  0.427932  1
  H  H7  1  0.270830  0.715731  0.337178  1
  H  H8  1  0.850290  0.235398  0.317875  1
  H  H9  1  0.052381  0.345816  0.078088  1
  H  H10  1  0.774823  0.846603  0.189361  1
  H  H11  1  0.441823  0.348269  0.188796  1
  O  O12  1  0.034014  0.158927  0.656535  1
  O  O13  1  0.759792  0.656613  0.529786  1
  O  O14  1  0.114285  0.674657  0.937051  1
  O  O15  1  0.543632  0.059731  0.900517  1
  Cd  Cd16  1  0.582751  0.490766  0.762923  1
 
# Source:                            Huan_etal:SciDat(submitted)                                                     
# Class:                             organometallic_polymer_crystal                                                  
# Label:                             Cd-based_polymer                                                                
# Structure prediction method used:  minima-hopping                                                                  
# Number of atoms:                    16
# Number of atom types:                4
# Atom types:                         C  H  O Cd
# Dielectric constant, electronic:   3.15377E+00
# Dielectric constant, ionic:        2.76663E+00
# Dielectric constant, total:        5.92040E+00
# Band gap at the GGA level (eV):    3.68340E+00
# Band gap at the HSE06 level (eV):  5.48300E+00
# Atomization energy (eV/atom):     -5.60834E+00
# Volume of the unit cell (A^3):     1.34886E+02
