# generated using pymatgen
data_CdH6C5O4
_symmetry_space_group_name_H-M   'P 1'
_cell_length_a   3.80941685
_cell_length_b   4.49684436
_cell_length_c   8.52996800
_cell_angle_alpha   74.94400071
_cell_angle_beta   85.00339042
_cell_angle_gamma   74.44783140
_symmetry_Int_Tables_number   1
_chemical_formula_structural   CdH6C5O4
_chemical_formula_sum   'Cd1 H6 C5 O4'
_cell_volume   135.915135623
_cell_formula_units_Z   1
loop_
 _symmetry_equiv_pos_site_id
 _symmetry_equiv_pos_as_xyz
  1  'x, y, z'
loop_
 _atom_site_type_symbol
 _atom_site_label
 _atom_site_symmetry_multiplicity
 _atom_site_fract_x
 _atom_site_fract_y
 _atom_site_fract_z
 _atom_site_occupancy
  C  C1  1  0.773741  0.776647  0.529158  1
  C  C2  1  0.936095  0.788471  0.358703  1
  C  C3  1  0.943357  0.491954  0.302566  1
  C  C4  1  0.106804  0.484935  0.132765  1
  C  C5  1  0.965492  0.763118  0.990535  1
  H  H6  1  0.774615  0.998612  0.277489  1
  H  H7  1  0.211413  0.819080  0.358071  1
  H  H8  1  0.667715  0.462893  0.310813  1
  H  H9  1  0.400674  0.451683  0.130862  1
  H  H10  1  0.102713  0.287556  0.388268  1
  H  H11  1  0.069466  0.275007  0.100752  1
  O  O12  1  0.858446  0.507325  0.639020  1
  O  O13  1  0.552029  0.024430  0.553843  1
  O  O14  1  0.680026  0.982108  0.007788  1
  O  O15  1  0.143305  0.768764  0.854955  1
  Cd  Cd16  1  0.406610  0.259959  0.767450  1
 
# Source:                            Huan_etal:SciDat(submitted)                                                     
# Class:                             organometallic_polymer_crystal                                                  
# Label:                             Cd-based_polymer                                                                
# Structure prediction method used:  minima-hopping                                                                  
# Number of atoms:                    16
# Number of atom types:                4
# Atom types:                         C  H  O Cd
# Dielectric constant, electronic:   3.12705E+00
# Dielectric constant, ionic:        3.49532E+00
# Dielectric constant, total:        6.62237E+00
# Band gap at the GGA level (eV):    3.58560E+00
# Band gap at the HSE06 level (eV):  5.41000E+00
# Atomization energy (eV/atom):     -5.60112E+00
# Volume of the unit cell (A^3):     1.35915E+02
