# generated using pymatgen
data_CdH6C5O4
_symmetry_space_group_name_H-M   'P 1'
_cell_length_a   3.76297069
_cell_length_b   4.67063163
_cell_length_c   8.40516116
_cell_angle_alpha   76.12405408
_cell_angle_beta   87.79247956
_cell_angle_gamma   74.05774307
_symmetry_Int_Tables_number   1
_chemical_formula_structural   CdH6C5O4
_chemical_formula_sum   'Cd1 H6 C5 O4'
_cell_volume   137.83844594
_cell_formula_units_Z   1
loop_
 _symmetry_equiv_pos_site_id
 _symmetry_equiv_pos_as_xyz
  1  'x, y, z'
loop_
 _atom_site_type_symbol
 _atom_site_label
 _atom_site_symmetry_multiplicity
 _atom_site_fract_x
 _atom_site_fract_y
 _atom_site_fract_z
 _atom_site_occupancy
  C  C1  1  0.292536  0.877968  0.444860  1
  C  C2  1  0.551424  0.723010  0.592329  1
  C  C3  1  0.365309  0.668214  0.759915  1
  C  C4  1  0.329821  0.338245  0.821709  1
  C  C5  1  0.525911  0.179393  0.987453  1
  H  H6  1  0.739817  0.510487  0.574154  1
  H  H7  1  0.710606  0.885230  0.592884  1
  H  H8  1  0.098422  0.835284  0.756616  1
  H  H9  1  0.041657  0.337302  0.836905  1
  H  H10  1  0.532176  0.712784  0.848622  1
  H  H11  1  0.439995  0.202672  0.733426  1
  O  O12  1  0.307966  0.750565  0.323583  1
  O  O13  1  0.072814  0.139627  0.446998  1
  O  O14  1  0.452459  0.319474  0.105463  1
  O  O15  1  0.764721  0.922251  0.001485  1
  Cd  Cd16  1  0.880847  0.518101  0.220900  1
 
# Source:                            Huan_etal:SciDat(submitted)                                                     
# Class:                             organometallic_polymer_crystal                                                  
# Label:                             Cd-based_polymer                                                                
# Structure prediction method used:  minima-hopping                                                                  
# Number of atoms:                    16
# Number of atom types:                4
# Atom types:                         C  H  O Cd
# Dielectric constant, electronic:   3.07110E+00
# Dielectric constant, ionic:        3.40279E+00
# Dielectric constant, total:        6.47388E+00
# Band gap at the GGA level (eV):    3.73750E+00
# Band gap at the HSE06 level (eV):  5.55940E+00
# Atomization energy (eV/atom):     -5.60038E+00
# Volume of the unit cell (A^3):     1.37838E+02
