# generated using pymatgen
data_CdH6C5O4
_symmetry_space_group_name_H-M   'P 1'
_cell_length_a   3.64645155
_cell_length_b   4.15185028
_cell_length_c   8.87513759
_cell_angle_alpha   85.39216089
_cell_angle_beta   86.24459161
_cell_angle_gamma   89.71581505
_symmetry_Int_Tables_number   1
_chemical_formula_structural   CdH6C5O4
_chemical_formula_sum   'Cd1 H6 C5 O4'
_cell_volume   133.643458157
_cell_formula_units_Z   1
loop_
 _symmetry_equiv_pos_site_id
 _symmetry_equiv_pos_as_xyz
  1  'x, y, z'
loop_
 _atom_site_type_symbol
 _atom_site_label
 _atom_site_symmetry_multiplicity
 _atom_site_fract_x
 _atom_site_fract_y
 _atom_site_fract_z
 _atom_site_occupancy
  C  C1  1  0.347282  0.097429  0.557469  1
  C  C2  1  0.245519  0.280909  0.412259  1
  C  C3  1  0.136112  0.071523  0.287991  1
  C  C4  1  0.044691  0.283922  0.145549  1
  C  C5  1  0.177410  0.164832  0.993997  1
  H  H6  1  0.023236  0.443176  0.443191  1
  H  H7  1  0.477334  0.436120  0.370678  1
  H  H8  1  0.903606  0.916681  0.329588  1
  H  H9  1  0.752039  0.335059  0.142244  1
  H  H10  1  0.362466  0.910736  0.258907  1
  H  H11  1  0.174644  0.520889  0.144026  1
  O  O12  1  0.199635  0.820634  0.599747  1
  O  O13  1  0.594964  0.209221  0.634425  1
  O  O14  1  0.397171  0.925459  0.989594  1
  O  O15  1  0.082786  0.330204  0.872958  1
  Cd  Cd16  1  0.649713  0.680337  0.775833  1
 
# Source:                            Huan_etal:SciDat(submitted)                                                     
# Class:                             organometallic_polymer_crystal                                                  
# Label:                             Cd-based_polymer                                                                
# Structure prediction method used:  minima-hopping                                                                  
# Number of atoms:                    16
# Number of atom types:                4
# Atom types:                         C  H  O Cd
# Dielectric constant, electronic:   3.14116E+00
# Dielectric constant, ionic:        3.59520E+00
# Dielectric constant, total:        6.73636E+00
# Band gap at the GGA level (eV):    3.56990E+00
# Band gap at the HSE06 level (eV):  5.29980E+00
# Atomization energy (eV/atom):     -5.59396E+00
# Volume of the unit cell (A^3):     1.33643E+02
