# generated using pymatgen
data_CdH6C5O4
_symmetry_space_group_name_H-M   'P 1'
_cell_length_a   3.75862399
_cell_length_b   5.12719970
_cell_length_c   7.69914704
_cell_angle_alpha   77.85066796
_cell_angle_beta   81.47900311
_cell_angle_gamma   69.94359254
_symmetry_Int_Tables_number   1
_chemical_formula_structural   CdH6C5O4
_chemical_formula_sum   'Cd1 H6 C5 O4'
_cell_volume   135.784972578
_cell_formula_units_Z   1
loop_
 _symmetry_equiv_pos_site_id
 _symmetry_equiv_pos_as_xyz
  1  'x, y, z'
loop_
 _atom_site_type_symbol
 _atom_site_label
 _atom_site_symmetry_multiplicity
 _atom_site_fract_x
 _atom_site_fract_y
 _atom_site_fract_z
 _atom_site_occupancy
  C  C1  1  0.113243  0.678467  0.456989  1
  C  C2  1  0.893730  0.659400  0.639705  1
  C  C3  1  0.630856  0.945989  0.680090  1
  C  C4  1  0.393718  0.928555  0.861919  1
  C  C5  1  0.567030  0.977121  0.011558  1
  H  H6  1  0.732916  0.514818  0.647304  1
  H  H7  1  0.104811  0.555755  0.738198  1
  H  H8  1  0.433080  0.037562  0.577337  1
  H  H9  1  0.119766  0.092687  0.847929  1
  H  H10  1  0.792586  0.089874  0.669163  1
  H  H11  1  0.350074  0.724247  0.898565  1
  O  O12  1  0.254471  0.446246  0.392187  1
  O  O13  1  0.167857  0.906583  0.381378  1
  O  O14  1  0.470259  0.238440  0.036167  1
  O  O15  1  0.804150  0.780243  0.103797  1
  Cd  Cd16  1  0.837731  0.327729  0.221747  1
 
# Source:                            Huan_etal:SciDat(submitted)                                                     
# Class:                             organometallic_polymer_crystal                                                  
# Label:                             Cd-based_polymer                                                                
# Structure prediction method used:  minima-hopping                                                                  
# Number of atoms:                    16
# Number of atom types:                4
# Atom types:                         C  H  O Cd
# Dielectric constant, electronic:   3.12259E+00
# Dielectric constant, ionic:        2.60664E+00
# Dielectric constant, total:        5.72923E+00
# Band gap at the GGA level (eV):    3.66470E+00
# Band gap at the HSE06 level (eV):  5.52620E+00
# Atomization energy (eV/atom):     -5.59998E+00
# Volume of the unit cell (A^3):     1.35785E+02
