# generated using pymatgen
data_CdH6C5O4
_symmetry_space_group_name_H-M   'P 1'
_cell_length_a   3.73702654
_cell_length_b   4.50981113
_cell_length_c   8.36817285
_cell_angle_alpha   87.58426871
_cell_angle_beta   81.39450831
_cell_angle_gamma   82.45476328
_symmetry_Int_Tables_number   1
_chemical_formula_structural   CdH6C5O4
_chemical_formula_sum   'Cd1 H6 C5 O4'
_cell_volume   138.199665645
_cell_formula_units_Z   1
loop_
 _symmetry_equiv_pos_site_id
 _symmetry_equiv_pos_as_xyz
  1  'x, y, z'
loop_
 _atom_site_type_symbol
 _atom_site_label
 _atom_site_symmetry_multiplicity
 _atom_site_fract_x
 _atom_site_fract_y
 _atom_site_fract_z
 _atom_site_occupancy
  C  C1  1  0.041780  0.450927  0.498380  1
  C  C2  1  0.235555  0.155783  0.547941  1
  C  C3  1  0.131657  0.051345  0.722813  1
  C  C4  1  0.167863  0.267775  0.856702  1
  C  C5  1  0.089591  0.098084  0.014719  1
  H  H6  1  0.156771  0.994486  0.469513  1
  H  H7  1  0.528333  0.151396  0.515590  1
  H  H8  1  0.304506  0.842847  0.740049  1
  H  H9  1  0.441541  0.333463  0.842508  1
  H  H10  1  0.852443  0.997468  0.739413  1
  H  H11  1  0.975212  0.470587  0.854689  1
  O  O12  1  0.156409  0.548966  0.348450  1
  O  O13  1  0.768251  0.581242  0.580946  1
  O  O14  1  0.817997  0.194700  0.122579  1
  O  O15  1  0.265482  0.836482  0.031979  1
  Cd  Cd16  1  0.680941  0.693512  0.213775  1
 
# Source:                            Huan_etal:SciDat(submitted)                                                     
# Class:                             organometallic_polymer_crystal                                                  
# Label:                             Cd-based_polymer                                                                
# Structure prediction method used:  minima-hopping                                                                  
# Number of atoms:                    16
# Number of atom types:                4
# Atom types:                         C  H  O Cd
# Dielectric constant, electronic:   3.09915E+00
# Dielectric constant, ionic:        3.10341E+00
# Dielectric constant, total:        6.20256E+00
# Band gap at the GGA level (eV):    3.17100E+00
# Band gap at the HSE06 level (eV):  4.98540E+00
# Atomization energy (eV/atom):     -5.58965E+00
# Volume of the unit cell (A^3):     1.38200E+02
