# generated using pymatgen
data_CdH8(C3O2)2
_symmetry_space_group_name_H-M   'P 1'
_cell_length_a   3.56893030
_cell_length_b   4.13066958
_cell_length_c   10.43142327
_cell_angle_alpha   87.30040040
_cell_angle_beta   83.19593443
_cell_angle_gamma   88.78688639
_symmetry_Int_Tables_number   1
_chemical_formula_structural   CdH8(C3O2)2
_chemical_formula_sum   'Cd1 H8 C6 O4'
_cell_volume   152.50941978
_cell_formula_units_Z   1
loop_
 _symmetry_equiv_pos_site_id
 _symmetry_equiv_pos_as_xyz
  1  'x, y, z'
loop_
 _atom_site_type_symbol
 _atom_site_label
 _atom_site_symmetry_multiplicity
 _atom_site_fract_x
 _atom_site_fract_y
 _atom_site_fract_z
 _atom_site_occupancy
  C  C1  1  0.987866  0.254015  0.398645  1
  C  C2  1  0.077069  0.374000  0.526443  1
  C  C3  1  0.126254  0.126174  0.636808  1
  C  C4  1  0.177950  0.298657  0.760423  1
  C  C5  1  0.236637  0.064779  0.874678  1
  C  C6  1  0.080476  0.173264  0.007783  1
  H  H7  1  0.321684  0.529282  0.506840  1
  H  H8  1  0.841985  0.539043  0.556113  1
  H  H9  1  0.367061  0.967949  0.608561  1
  H  H10  1  0.412590  0.466701  0.741692  1
  H  H11  1  0.529748  0.988276  0.876170  1
  H  H12  1  0.085613  0.840186  0.867496  1
  H  H13  1  0.879814  0.971639  0.655600  1
  H  H14  1  0.926868  0.447381  0.786814  1
  O  O15  1  0.768678  0.018414  0.394734  1
  O  O16  1  0.115598  0.428568  0.295766  1
  O  O17  1  0.163865  0.984850  0.104697  1
  O  O18  1  0.845559  0.406178  0.020197  1
  Cd  Cd19  1  0.636300  0.722481  0.206057  1
 
# Source:                            Huan_etal:SciDat(submitted)                                                     
# Class:                             organometallic_polymer_crystal                                                  
# Label:                             Cd-based_polymer                                                                
# Structure prediction method used:  minima-hopping                                                                  
# Number of atoms:                    19
# Number of atom types:                4
# Atom types:                         C  H  O Cd
# Dielectric constant, electronic:   3.10175E+00
# Dielectric constant, ionic:        3.21651E+00
# Dielectric constant, total:        6.31826E+00
# Band gap at the GGA level (eV):    3.72190E+00
# Band gap at the HSE06 level (eV):  5.53270E+00
# Atomization energy (eV/atom):     -5.52013E+00
# Volume of the unit cell (A^3):     1.52509E+02
