# generated using pymatgen
data_CdH10C7O4
_symmetry_space_group_name_H-M   'P 1'
_cell_length_a   3.70927383
_cell_length_b   4.24467242
_cell_length_c   11.24713238
_cell_angle_alpha   92.84117109
_cell_angle_beta   97.85496340
_cell_angle_gamma   98.75916564
_symmetry_Int_Tables_number   1
_chemical_formula_structural   CdH10C7O4
_chemical_formula_sum   'Cd1 H10 C7 O4'
_cell_volume   172.926235877
_cell_formula_units_Z   1
loop_
 _symmetry_equiv_pos_site_id
 _symmetry_equiv_pos_as_xyz
  1  'x, y, z'
loop_
 _atom_site_type_symbol
 _atom_site_label
 _atom_site_symmetry_multiplicity
 _atom_site_fract_x
 _atom_site_fract_y
 _atom_site_fract_z
 _atom_site_occupancy
  C  C1  1  0.857512  0.362349  0.633207  1
  C  C2  1  0.903783  0.183619  0.518358  1
  C  C3  1  0.030293  0.393174  0.419987  1
  C  C4  1  0.058672  0.185447  0.307343  1
  C  C5  1  0.167819  0.370593  0.200518  1
  C  C6  1  0.174694  0.134188  0.094052  1
  C  C7  1  0.285546  0.263646  0.979129  1
  H  H8  1  0.102327  0.025899  0.544137  1
  H  H9  1  0.643804  0.026382  0.485399  1
  H  H10  1  0.368153  0.969855  0.119546  1
  H  H11  1  0.908099  0.979987  0.070969  1
  H  H12  1  0.297012  0.540323  0.454026  1
  H  H13  1  0.255394  0.022534  0.330648  1
  H  H14  1  0.437389  0.520826  0.225738  1
  H  H15  1  0.969804  0.529416  0.174492  1
  H  H16  1  0.838117  0.559706  0.397086  1
  H  H17  1  0.792792  0.030664  0.278501  1
  O  O18  1  0.622013  0.240566  0.698220  1
  O  O19  1  0.041511  0.643428  0.663022  1
  O  O20  1  0.502740  0.528778  0.982363  1
  O  O21  1  0.170361  0.084699  0.880869  1
  Cd  Cd22  1  0.598560  0.762467  0.803158  1
 
# Source:                            Huan_etal:SciDat(submitted)                                                     
# Class:                             organometallic_polymer_crystal                                                  
# Label:                             Cd-based_polymer                                                                
# Structure prediction method used:  minima-hopping                                                                  
# Number of atoms:                    22
# Number of atom types:                4
# Atom types:                         C  H  O Cd
# Dielectric constant, electronic:   3.04389E+00
# Dielectric constant, ionic:        2.00510E+00
# Dielectric constant, total:        5.04899E+00
# Band gap at the GGA level (eV):    3.75360E+00
# Band gap at the HSE06 level (eV):  5.56430E+00
# Atomization energy (eV/atom):     -5.48949E+00
# Volume of the unit cell (A^3):     1.72926E+02
