# generated using pymatgen
data_CdH10C7O4
_symmetry_space_group_name_H-M   'P 1'
_cell_length_a   3.70683868
_cell_length_b   4.24077542
_cell_length_c   11.26175652
_cell_angle_alpha   92.70925590
_cell_angle_beta   97.57663614
_cell_angle_gamma   98.84025945
_symmetry_Int_Tables_number   1
_chemical_formula_structural   CdH10C7O4
_chemical_formula_sum   'Cd1 H10 C7 O4'
_cell_volume   172.990446065
_cell_formula_units_Z   1
loop_
 _symmetry_equiv_pos_site_id
 _symmetry_equiv_pos_as_xyz
  1  'x, y, z'
loop_
 _atom_site_type_symbol
 _atom_site_label
 _atom_site_symmetry_multiplicity
 _atom_site_fract_x
 _atom_site_fract_y
 _atom_site_fract_z
 _atom_site_occupancy
  C  C1  1  0.480908  0.559003  0.631916  1
  C  C2  1  0.523578  0.378315  0.517274  1
  C  C3  1  0.640980  0.586534  0.417102  1
  C  C4  1  0.673641  0.376610  0.305748  1
  C  C5  1  0.778444  0.560743  0.198039  1
  C  C6  1  0.792368  0.323745  0.092709  1
  C  C7  1  0.903793  0.454226  0.977815  1
  H  H8  1  0.726865  0.224474  0.542406  1
  H  H9  1  0.264950  0.216999  0.486642  1
  H  H10  1  0.989963  0.163703  0.119085  1
  H  H11  1  0.528631  0.165186  0.069835  1
  H  H12  1  0.904641  0.740235  0.449300  1
  H  H13  1  0.875235  0.218583  0.329848  1
  H  H14  1  0.044972  0.716150  0.222493  1
  H  H15  1  0.575888  0.714845  0.171370  1
  H  H16  1  0.442203  0.747082  0.393724  1
  H  H17  1  0.410691  0.216603  0.278176  1
  O  O18  1  0.246341  0.438386  0.698046  1
  O  O19  1  0.667283  0.839520  0.660607  1
  O  O20  1  0.120521  0.719935  0.980824  1
  O  O21  1  0.790124  0.275491  0.879780  1
  Cd  Cd22  1  0.219232  0.956580  0.801889  1
 
# Source:                            Huan_etal:SciDat(submitted)                                                     
# Class:                             organometallic_polymer_crystal                                                  
# Label:                             Cd-based_polymer                                                                
# Structure prediction method used:  minima-hopping                                                                  
# Number of atoms:                    22
# Number of atom types:                4
# Atom types:                         C  H  O Cd
# Dielectric constant, electronic:   3.04317E+00
# Dielectric constant, ionic:        2.05764E+00
# Dielectric constant, total:        5.10081E+00
# Band gap at the GGA level (eV):    3.77400E+00
# Band gap at the HSE06 level (eV):  5.58300E+00
# Atomization energy (eV/atom):     -5.48959E+00
# Volume of the unit cell (A^3):     1.72990E+02
