# generated using pymatgen
data_CdH12(C2O)4
_symmetry_space_group_name_H-M   'P 1'
_cell_length_a   3.96505329
_cell_length_b   4.15826466
_cell_length_c   12.09380649
_cell_angle_alpha   90.72409572
_cell_angle_beta   94.98839258
_cell_angle_gamma   102.64170653
_symmetry_Int_Tables_number   1
_chemical_formula_structural   CdH12(C2O)4
_chemical_formula_sum   'Cd1 H12 C8 O4'
_cell_volume   193.725813919
_cell_formula_units_Z   1
loop_
 _symmetry_equiv_pos_site_id
 _symmetry_equiv_pos_as_xyz
  1  'x, y, z'
loop_
 _atom_site_type_symbol
 _atom_site_label
 _atom_site_symmetry_multiplicity
 _atom_site_fract_x
 _atom_site_fract_y
 _atom_site_fract_z
 _atom_site_occupancy
  C  C1  1  0.884572  0.183375  0.341692  1
  C  C2  1  0.673659  0.109979  0.440350  1
  C  C3  1  0.862295  0.963669  0.538708  1
  C  C4  1  0.059972  0.218360  0.627378  1
  C  C5  1  0.206579  0.055824  0.728116  1
  C  C6  1  0.370046  0.298049  0.824469  1
  C  C7  1  0.505596  0.116055  0.923361  1
  C  C8  1  0.610666  0.340619  0.025576  1
  H  H9  1  0.604983  0.335873  0.467306  1
  H  H10  1  0.436866  0.931124  0.413125  1
  H  H11  1  0.583096  0.487004  0.797738  1
  H  H12  1  0.176511  0.426319  0.851259  1
  H  H13  1  0.032212  0.815610  0.507901  1
  H  H14  1  0.268544  0.391662  0.591744  1
  H  H15  1  0.396699  0.920658  0.703060  1
  H  H16  1  0.995903  0.869869  0.758122  1
  H  H17  1  0.729590  0.023091  0.902293  1
  H  H18  1  0.302489  0.906862  0.941806  1
  H  H19  1  0.663007  0.791151  0.578459  1
  H  H20  1  0.883048  0.365101  0.654973  1
  O  O21  1  0.123043  0.442755  0.343212  1
  O  O22  1  0.816663  0.967987  0.259294  1
  O  O23  1  0.426797  0.283340  0.109633  1
  O  O24  1  0.866055  0.586335  0.023977  1
  Cd  Cd25  1  0.244299  0.743254  0.183234  1
 
# Source:                            Huan_etal:SciDat(submitted)                                                     
# Class:                             organometallic_polymer_crystal                                                  
# Label:                             Cd-based_polymer                                                                
# Structure prediction method used:  minima-hopping                                                                  
# Number of atoms:                    25
# Number of atom types:                4
# Atom types:                         C  H  O Cd
# Dielectric constant, electronic:   3.01249E+00
# Dielectric constant, ionic:        2.06086E+00
# Dielectric constant, total:        5.07335E+00
# Band gap at the GGA level (eV):    3.87800E+00
# Band gap at the HSE06 level (eV):  5.75300E+00
# Atomization energy (eV/atom):     -5.44701E+00
# Volume of the unit cell (A^3):     1.93726E+02
