# generated using pymatgen
data_CdH12(C2O)4
_symmetry_space_group_name_H-M   'P 1'
_cell_length_a   3.91990843
_cell_length_b   4.29673805
_cell_length_c   11.97348944
_cell_angle_alpha   91.74366008
_cell_angle_beta   97.83916203
_cell_angle_gamma   103.44573962
_symmetry_Int_Tables_number   1
_chemical_formula_structural   CdH12(C2O)4
_chemical_formula_sum   'Cd1 H12 C8 O4'
_cell_volume   193.902219254
_cell_formula_units_Z   1
loop_
 _symmetry_equiv_pos_site_id
 _symmetry_equiv_pos_as_xyz
  1  'x, y, z'
loop_
 _atom_site_type_symbol
 _atom_site_label
 _atom_site_symmetry_multiplicity
 _atom_site_fract_x
 _atom_site_fract_y
 _atom_site_fract_z
 _atom_site_occupancy
  C  C1  1  0.876974  0.142328  0.340267  1
  C  C2  1  0.679221  0.074565  0.440180  1
  C  C3  1  0.887131  0.950949  0.542005  1
  C  C4  1  0.110343  0.218686  0.627388  1
  C  C5  1  0.281452  0.091144  0.733635  1
  C  C6  1  0.504648  0.358921  0.819008  1
  C  C7  1  0.712626  0.235391  0.920837  1
  C  C8  1  0.514923  0.167695  0.020763  1
  H  H9  1  0.611224  0.294560  0.466374  1
  H  H10  1  0.436091  0.893476  0.412113  1
  H  H11  1  0.700484  0.515488  0.775919  1
  H  H12  1  0.342663  0.510954  0.848320  1
  H  H13  1  0.049093  0.798904  0.512685  1
  H  H14  1  0.315496  0.373965  0.587296  1
  H  H15  1  0.450401  0.938382  0.709495  1
  H  H16  1  0.076307  0.935864  0.773730  1
  H  H17  1  0.955746  0.416515  0.948885  1
  H  H18  1  0.780631  0.015386  0.894662  1
  H  H19  1  0.691254  0.794382  0.585081  1
  H  H20  1  0.941409  0.371464  0.651530  1
  O  O21  1  0.114729  0.402790  0.343359  1
  O  O22  1  0.798989  0.930788  0.255829  1
  O  O23  1  0.277148  0.907257  0.017689  1
  O  O24  1  0.592976  0.379285  0.105186  1
  Cd  Cd25  1  0.196014  0.654992  0.180522  1
 
# Source:                            Huan_etal:SciDat(submitted)                                                     
# Class:                             organometallic_polymer_crystal                                                  
# Label:                             Cd-based_polymer                                                                
# Structure prediction method used:  minima-hopping                                                                  
# Number of atoms:                    25
# Number of atom types:                4
# Atom types:                         C  H  O Cd
# Dielectric constant, electronic:   3.02035E+00
# Dielectric constant, ionic:        3.83528E+00
# Dielectric constant, total:        6.85564E+00
# Band gap at the GGA level (eV):    3.72340E+00
# Band gap at the HSE06 level (eV):  5.63540E+00
# Atomization energy (eV/atom):     -5.44251E+00
# Volume of the unit cell (A^3):     1.93902E+02
