# generated using pymatgen
data_CdH12(C2O)4
_symmetry_space_group_name_H-M   'P 1'
_cell_length_a   3.66210357
_cell_length_b   5.09465244
_cell_length_c   11.37625674
_cell_angle_alpha   92.68696141
_cell_angle_beta   91.67549951
_cell_angle_gamma   111.59647509
_symmetry_Int_Tables_number   1
_chemical_formula_structural   CdH12(C2O)4
_chemical_formula_sum   'Cd1 H12 C8 O4'
_cell_volume   196.884322589
_cell_formula_units_Z   1
loop_
 _symmetry_equiv_pos_site_id
 _symmetry_equiv_pos_as_xyz
  1  'x, y, z'
loop_
 _atom_site_type_symbol
 _atom_site_label
 _atom_site_symmetry_multiplicity
 _atom_site_fract_x
 _atom_site_fract_y
 _atom_site_fract_z
 _atom_site_occupancy
  C  C1  1  0.466764  0.469679  0.340536  1
  C  C2  1  0.654614  0.460969  0.460983  1
  C  C3  1  0.921940  0.751936  0.515998  1
  C  C4  1  0.016884  0.749390  0.648358  1
  C  C5  1  0.114349  0.039521  0.714907  1
  C  C6  1  0.001730  0.009125  0.843633  1
  C  C7  1  0.020907  0.285429  0.908319  1
  C  C8  1  0.825672  0.240787  0.026054  1
  H  H9  1  0.409973  0.363956  0.517705  1
  H  H10  1  0.803576  0.310874  0.452166  1
  H  H11  1  0.699969  0.855877  0.844929  1
  H  H12  1  0.181102  0.915878  0.892088  1
  H  H13  1  0.769445  0.897958  0.504202  1
  H  H14  1  0.758661  0.598436  0.687067  1
  H  H15  1  0.950069  0.151924  0.671089  1
  H  H16  1  0.424831  0.171054  0.709177  1
  H  H17  1  0.867781  0.391231  0.855388  1
  H  H18  1  0.321020  0.439411  0.924379  1
  H  H19  1  0.189291  0.837289  0.467555  1
  H  H20  1  0.253211  0.670308  0.663490  1
  O  O21  1  0.202235  0.248214  0.294994  1
  O  O22  1  0.571341  0.713162  0.294562  1
  O  O23  1  0.774792  0.442923  0.081988  1
  O  O24  1  0.691868  0.984237  0.060905  1
  Cd  Cd25  1  0.158135  0.859122  0.180558  1
 
# Source:                            Huan_etal:SciDat(submitted)                                                     
# Class:                             organometallic_polymer_crystal                                                  
# Label:                             Cd-based_polymer                                                                
# Structure prediction method used:  minima-hopping                                                                  
# Number of atoms:                    25
# Number of atom types:                4
# Atom types:                         C  H  O Cd
# Dielectric constant, electronic:   2.94673E+00
# Dielectric constant, ionic:        1.61617E+00
# Dielectric constant, total:        4.56290E+00
# Band gap at the GGA level (eV):    3.82600E+00
# Band gap at the HSE06 level (eV):  5.80320E+00
# Atomization energy (eV/atom):     -5.43661E+00
# Volume of the unit cell (A^3):     1.96884E+02
