# generated using pymatgen
data_CdH12(C2O)4
_symmetry_space_group_name_H-M   'P 1'
_cell_length_a   3.61527222
_cell_length_b   4.66129691
_cell_length_c   11.63202363
_cell_angle_alpha   83.11447142
_cell_angle_beta   86.82107644
_cell_angle_gamma   88.79313884
_symmetry_Int_Tables_number   1
_chemical_formula_structural   CdH12(C2O)4
_chemical_formula_sum   'Cd1 H12 C8 O4'
_cell_volume   194.287429491
_cell_formula_units_Z   1
loop_
 _symmetry_equiv_pos_site_id
 _symmetry_equiv_pos_as_xyz
  1  'x, y, z'
loop_
 _atom_site_type_symbol
 _atom_site_label
 _atom_site_symmetry_multiplicity
 _atom_site_fract_x
 _atom_site_fract_y
 _atom_site_fract_z
 _atom_site_occupancy
  C  C1  1  0.396562  0.894325  0.340078  1
  C  C2  1  0.531013  0.862188  0.462485  1
  C  C3  1  0.586590  0.552273  0.518824  1
  C  C4  1  0.652737  0.542151  0.648288  1
  C  C5  1  0.697527  0.236198  0.710619  1
  C  C6  1  0.611526  0.213398  0.842198  1
  C  C7  1  0.587466  0.899375  0.896261  1
  C  C8  1  0.417231  0.849464  0.019029  1
  H  H9  1  0.777705  0.990751  0.464336  1
  H  H10  1  0.314011  0.967771  0.513172  1
  H  H11  1  0.816130  0.323973  0.885675  1
  H  H12  1  0.346109  0.320352  0.859031  1
  H  H13  1  0.815770  0.451851  0.472548  1
  H  H14  1  0.890704  0.673521  0.661068  1
  H  H15  1  0.975148  0.149936  0.691528  1
  H  H16  1  0.507062  0.096580  0.674640  1
  H  H17  1  0.852402  0.785554  0.890957  1
  H  H18  1  0.401686  0.785873  0.846233  1
  H  H19  1  0.340337  0.428892  0.508404  1
  H  H20  1  0.413500  0.644824  0.689221  1
  O  O21  1  0.177663  0.711515  0.312416  1
  O  O22  1  0.484564  0.134422  0.274119  1
  O  O23  1  0.502593  0.602122  0.079123  1
  O  O24  1  0.169819  0.019644  0.051656  1
  Cd  Cd25  1  0.997539  0.377799  0.179847  1
 
# Source:                            Huan_etal:SciDat(submitted)                                                     
# Class:                             organometallic_polymer_crystal                                                  
# Label:                             Cd-based_polymer                                                                
# Structure prediction method used:  minima-hopping                                                                  
# Number of atoms:                    25
# Number of atom types:                4
# Atom types:                         C  H  O Cd
# Dielectric constant, electronic:   2.99366E+00
# Dielectric constant, ionic:        2.22218E+00
# Dielectric constant, total:        5.21585E+00
# Band gap at the GGA level (eV):    3.67850E+00
# Band gap at the HSE06 level (eV):  5.54040E+00
# Atomization energy (eV/atom):     -5.42391E+00
# Volume of the unit cell (A^3):     1.94287E+02
