# generated using pymatgen
data_CdH14C9O4
_symmetry_space_group_name_H-M   'P 1'
_cell_length_a   3.73154948
_cell_length_b   4.24586438
_cell_length_c   13.66199778
_cell_angle_alpha   85.38272211
_cell_angle_beta   83.94859768
_cell_angle_gamma   80.82123388
_symmetry_Int_Tables_number   1
_chemical_formula_structural   CdH14C9O4
_chemical_formula_sum   'Cd1 H14 C9 O4'
_cell_volume   212.046040612
_cell_formula_units_Z   1
loop_
 _symmetry_equiv_pos_site_id
 _symmetry_equiv_pos_as_xyz
  1  'x, y, z'
loop_
 _atom_site_type_symbol
 _atom_site_label
 _atom_site_symmetry_multiplicity
 _atom_site_fract_x
 _atom_site_fract_y
 _atom_site_fract_z
 _atom_site_occupancy
  C  C1  1  0.288374  0.535981  0.687939  1
  C  C2  1  0.477944  0.404234  0.593009  1
  C  C3  1  0.570788  0.641362  0.507294  1
  C  C4  1  0.746966  0.459524  0.417451  1
  C  C5  1  0.861977  0.672955  0.327520  1
  C  C6  1  0.037313  0.477566  0.240510  1
  C  C7  1  0.154982  0.680165  0.148255  1
  C  C8  1  0.340617  0.467874  0.066218  1
  C  C9  1  0.465408  0.646323  0.971873  1
  H  H10  1  0.721534  0.240384  0.611195  1
  H  H11  1  0.295555  0.250350  0.570717  1
  H  H12  1  0.274963  0.312851  0.263923  1
  H  H13  1  0.847589  0.325097  0.221591  1
  H  H14  1  0.575470  0.305055  0.091322  1
  H  H15  1  0.154447  0.316273  0.045857  1
  H  H16  1  0.756833  0.790227  0.529767  1
  H  H17  1  0.986634  0.292933  0.438795  1
  H  H18  1  0.052945  0.821974  0.347763  1
  H  H19  1  0.624158  0.838969  0.304878  1
  H  H20  1  0.339104  0.837722  0.167031  1
  H  H21  1  0.918100  0.837015  0.121408  1
  H  H22  1  0.324948  0.802028  0.488094  1
  H  H23  1  0.558439  0.309121  0.396519  1
  O  O24  1  0.334087  0.358609  0.768436  1
  O  O25  1  0.074490  0.802340  0.685803  1
  O  O26  1  0.299557  0.926438  0.948101  1
  O  O27  1  0.747406  0.524508  0.917857  1
  Cd  Cd28  1  0.849297  0.041738  0.832505  1
 
# Source:                            Huan_etal:SciDat(submitted)                                                     
# Class:                             organometallic_polymer_crystal                                                  
# Label:                             Cd-based_polymer                                                                
# Structure prediction method used:  minima-hopping                                                                  
# Number of atoms:                    28
# Number of atom types:                4
# Atom types:                         C  H  O Cd
# Dielectric constant, electronic:   2.98658E+00
# Dielectric constant, ionic:        1.71457E+00
# Dielectric constant, total:        4.70115E+00
# Band gap at the GGA level (eV):    3.77960E+00
# Band gap at the HSE06 level (eV):  5.59470E+00
# Atomization energy (eV/atom):     -5.41721E+00
# Volume of the unit cell (A^3):     2.12046E+02
