# generated using pymatgen
data_CdH14C9O4
_symmetry_space_group_name_H-M   'P 1'
_cell_length_a   3.75650805
_cell_length_b   4.36341149
_cell_length_c   13.67612180
_cell_angle_alpha   92.76928267
_cell_angle_beta   93.67716962
_cell_angle_gamma   104.65250348
_symmetry_Int_Tables_number   1
_chemical_formula_structural   CdH14C9O4
_chemical_formula_sum   'Cd1 H14 C9 O4'
_cell_volume   215.946911596
_cell_formula_units_Z   1
loop_
 _symmetry_equiv_pos_site_id
 _symmetry_equiv_pos_as_xyz
  1  'x, y, z'
loop_
 _atom_site_type_symbol
 _atom_site_label
 _atom_site_symmetry_multiplicity
 _atom_site_fract_x
 _atom_site_fract_y
 _atom_site_fract_z
 _atom_site_occupancy
  C  C1  1  0.348870  0.477900  0.668261  1
  C  C2  1  0.580609  0.549981  0.581665  1
  C  C3  1  0.413747  0.694479  0.493999  1
  C  C4  1  0.200343  0.448412  0.413100  1
  C  C5  1  0.099228  0.603224  0.320622  1
  C  C6  1  0.902881  0.366044  0.235657  1
  C  C7  1  0.834579  0.534866  0.143211  1
  C  C8  1  0.651390  0.307641  0.054652  1
  C  C9  1  0.736379  0.441600  0.955646  1
  H  H10  1  0.835956  0.719750  0.608802  1
  H  H11  1  0.642446  0.330616  0.556252  1
  H  H12  1  0.071588  0.201795  0.218614  1
  H  H13  1  0.641984  0.219734  0.257990  1
  H  H14  1  0.743763  0.088834  0.053934  1
  H  H15  1  0.351529  0.228539  0.056417  1
  H  H16  1  0.646252  0.850113  0.461645  1
  H  H17  1  0.370165  0.287613  0.393730  1
  H  H18  1  0.352632  0.753805  0.295355  1
  H  H19  1  0.927809  0.763791  0.338736  1
  H  H20  1  0.099537  0.680706  0.123614  1
  H  H21  1  0.667496  0.700610  0.159346  1
  H  H22  1  0.245584  0.848542  0.519414  1
  H  H23  1  0.951457  0.299616  0.440358  1
  O  O24  1  0.111360  0.212004  0.667358  1
  O  O25  1  0.404384  0.690159  0.741044  1
  O  O26  1  0.949850  0.718534  0.953714  1
  O  O27  1  0.604789  0.261770  0.876836  1
  Cd  Cd28  1  0.999180  0.964254  0.810184  1
 
# Source:                            Huan_etal:SciDat(submitted)                                                     
# Class:                             organometallic_polymer_crystal                                                  
# Label:                             Cd-based_polymer                                                                
# Structure prediction method used:  minima-hopping                                                                  
# Number of atoms:                    28
# Number of atom types:                4
# Atom types:                         C  H  O Cd
# Dielectric constant, electronic:   2.94267E+00
# Dielectric constant, ionic:        1.98087E+00
# Dielectric constant, total:        4.92354E+00
# Band gap at the GGA level (eV):    3.96750E+00
# Band gap at the HSE06 level (eV):  5.89470E+00
# Atomization energy (eV/atom):     -5.41399E+00
# Volume of the unit cell (A^3):     2.15947E+02
