# generated using pymatgen
data_CdH14C9O4
_symmetry_space_group_name_H-M   'P 1'
_cell_length_a   4.08065297
_cell_length_b   4.09960863
_cell_length_c   12.98544665
_cell_angle_alpha   88.29862469
_cell_angle_beta   85.82910749
_cell_angle_gamma   79.80242994
_symmetry_Int_Tables_number   1
_chemical_formula_structural   CdH14C9O4
_chemical_formula_sum   'Cd1 H14 C9 O4'
_cell_volume   213.205419045
_cell_formula_units_Z   1
loop_
 _symmetry_equiv_pos_site_id
 _symmetry_equiv_pos_as_xyz
  1  'x, y, z'
loop_
 _atom_site_type_symbol
 _atom_site_label
 _atom_site_symmetry_multiplicity
 _atom_site_fract_x
 _atom_site_fract_y
 _atom_site_fract_z
 _atom_site_occupancy
  C  C1  1  0.652544  0.472600  0.676989  1
  C  C2  1  0.462258  0.564134  0.581420  1
  C  C3  1  0.677601  0.694299  0.492385  1
  C  C4  1  0.466591  0.831556  0.402786  1
  C  C5  1  0.667971  0.965988  0.312152  1
  C  C6  1  0.452031  0.122575  0.225711  1
  C  C7  1  0.653594  0.261281  0.135675  1
  C  C8  1  0.443117  0.482298  0.058313  1
  C  C9  1  0.350705  0.323370  0.963845  1
  H  H10  1  0.370648  0.346036  0.557014  1
  H  H11  1  0.247551  0.755396  0.601481  1
  H  H12  1  0.312036  0.943068  0.198115  1
  H  H13  1  0.264976  0.325260  0.258347  1
  H  H14  1  0.212983  0.617172  0.096005  1
  H  H15  1  0.583839  0.668721  0.026770  1
  H  H16  1  0.878312  0.494479  0.465679  1
  H  H17  1  0.340941  0.638616  0.375707  1
  H  H18  1  0.861284  0.765810  0.281117  1
  H  H19  1  0.800443  0.151886  0.340511  1
  H  H20  1  0.820361  0.060528  0.094545  1
  H  H21  1  0.814373  0.411858  0.168418  1
  H  H22  1  0.795610  0.890115  0.521036  1
  H  H23  1  0.267633  0.030585  0.431576  1
  O  O24  1  0.578176  0.653252  0.757379  1
  O  O25  1  0.889069  0.219715  0.672977  1
  O  O26  1  0.526846  0.059457  0.927049  1
  O  O27  1  0.082670  0.457373  0.920431  1
  Cd  Cd28  1  0.045138  0.953484  0.822990  1
 
# Source:                            Huan_etal:SciDat(submitted)                                                     
# Class:                             organometallic_polymer_crystal                                                  
# Label:                             Cd-based_polymer                                                                
# Structure prediction method used:  minima-hopping                                                                  
# Number of atoms:                    28
# Number of atom types:                4
# Atom types:                         C  H  O Cd
# Dielectric constant, electronic:   2.99965E+00
# Dielectric constant, ionic:        2.64708E+00
# Dielectric constant, total:        5.64673E+00
# Band gap at the GGA level (eV):    3.64850E+00
# Band gap at the HSE06 level (eV):  5.45720E+00
# Atomization energy (eV/atom):     -5.41095E+00
# Volume of the unit cell (A^3):     2.13205E+02
