# generated using pymatgen
data_CdH14C9O4
_symmetry_space_group_name_H-M   'P 1'
_cell_length_a   3.92513234
_cell_length_b   4.21962643
_cell_length_c   13.15572025
_cell_angle_alpha   86.57773970
_cell_angle_beta   83.71600506
_cell_angle_gamma   79.32718755
_symmetry_Int_Tables_number   1
_chemical_formula_structural   CdH14C9O4
_chemical_formula_sum   'Cd1 H14 C9 O4'
_cell_volume   212.663496384
_cell_formula_units_Z   1
loop_
 _symmetry_equiv_pos_site_id
 _symmetry_equiv_pos_as_xyz
  1  'x, y, z'
loop_
 _atom_site_type_symbol
 _atom_site_label
 _atom_site_symmetry_multiplicity
 _atom_site_fract_x
 _atom_site_fract_y
 _atom_site_fract_z
 _atom_site_occupancy
  C  C1  1  0.680312  0.756056  0.679111  1
  C  C2  1  0.576765  0.624738  0.585097  1
  C  C3  1  0.875225  0.438257  0.515119  1
  C  C4  1  0.759297  0.292480  0.423211  1
  C  C5  1  0.648706  0.534629  0.335894  1
  C  C6  1  0.563174  0.364572  0.244702  1
  C  C7  1  0.458369  0.589011  0.152902  1
  C  C8  1  0.393330  0.388623  0.065922  1
  C  C9  1  0.295831  0.567309  0.966998  1
  H  H10  1  0.402078  0.462334  0.614936  1
  H  H11  1  0.424800  0.824657  0.544148  1
  H  H12  1  0.791023  0.183357  0.219507  1
  H  H13  1  0.354889  0.228028  0.269824  1
  H  H14  1  0.620739  0.202368  0.047362  1
  H  H15  1  0.179186  0.259500  0.091219  1
  H  H16  1  0.017867  0.244658  0.561422  1
  H  H17  1  0.976998  0.110975  0.391969  1
  H  H18  1  0.858349  0.669514  0.311148  1
  H  H19  1  0.422392  0.714283  0.362777  1
  H  H20  1  0.665541  0.724485  0.126446  1
  H  H21  1  0.224598  0.765993  0.175278  1
  H  H22  1  0.057544  0.595976  0.486041  1
  H  H23  1  0.547326  0.161980  0.448346  1
  O  O24  1  0.936622  0.606644  0.725639  1
  O  O25  1  0.511073  0.028159  0.711695  1
  O  O26  1  0.078671  0.835838  0.970982  1
  O  O27  1  0.417895  0.433822  0.882228  1
  Cd  Cd28  1  0.966363  0.108714  0.819266  1
 
# Source:                            Huan_etal:SciDat(submitted)                                                     
# Class:                             organometallic_polymer_crystal                                                  
# Label:                             Cd-based_polymer                                                                
# Structure prediction method used:  minima-hopping                                                                  
# Number of atoms:                    28
# Number of atom types:                4
# Atom types:                         C  H  O Cd
# Dielectric constant, electronic:   2.99525E+00
# Dielectric constant, ionic:        2.22371E+00
# Dielectric constant, total:        5.21896E+00
# Band gap at the GGA level (eV):    3.59090E+00
# Band gap at the HSE06 level (eV):  5.45220E+00
# Atomization energy (eV/atom):     -5.41194E+00
# Volume of the unit cell (A^3):     2.12663E+02
