# generated using pymatgen
data_CdH14C9O4
_symmetry_space_group_name_H-M   'P 1'
_cell_length_a   3.95610359
_cell_length_b   4.35198007
_cell_length_c   13.07904384
_cell_angle_alpha   93.58085000
_cell_angle_beta   81.11568891
_cell_angle_gamma   75.48823646
_symmetry_Int_Tables_number   1
_chemical_formula_structural   CdH14C9O4
_chemical_formula_sum   'Cd1 H14 C9 O4'
_cell_volume   214.17290073
_cell_formula_units_Z   1
loop_
 _symmetry_equiv_pos_site_id
 _symmetry_equiv_pos_as_xyz
  1  'x, y, z'
loop_
 _atom_site_type_symbol
 _atom_site_label
 _atom_site_symmetry_multiplicity
 _atom_site_fract_x
 _atom_site_fract_y
 _atom_site_fract_z
 _atom_site_occupancy
  C  C1  1  0.927638  0.723664  0.315951  1
  C  C2  1  0.623488  0.838249  0.406681  1
  C  C3  1  0.717645  0.010518  0.501281  1
  C  C4  1  0.868993  0.784055  0.578085  1
  C  C5  1  0.913342  0.960719  0.678219  1
  C  C6  1  0.057776  0.736133  0.756335  1
  C  C7  1  0.091548  0.913088  0.857797  1
  C  C8  1  0.261999  0.684023  0.931033  1
  C  C9  1  0.334377  0.846939  0.027681  1
  H  H10  1  0.409000  0.002081  0.379102  1
  H  H11  1  0.533994  0.632181  0.430346  1
  H  H12  1  0.886614  0.576886  0.773651  1
  H  H13  1  0.318414  0.581382  0.720167  1
  H  H14  1  0.093900  0.530361  0.957239  1
  H  H15  1  0.514418  0.524984  0.891086  1
  H  H16  1  0.472281  0.178744  0.542242  1
  H  H17  1  0.691059  0.632202  0.598092  1
  H  H18  1  0.655715  0.120048  0.715070  1
  H  H19  1  0.089211  0.114977  0.659174  1
  H  H20  1  0.829630  0.055967  0.897594  1
  H  H21  1  0.249161  0.082742  0.839580  1
  H  H22  1  0.897423  0.155084  0.474928  1
  H  H23  1  0.123103  0.622181  0.540601  1
  O  O24  1  0.159452  0.458109  0.318736  1
  O  O25  1  0.951011  0.888181  0.239050  1
  O  O26  1  0.165746  0.141001  0.057524  1
  O  O27  1  0.574204  0.699746  0.075970  1
  Cd  Cd28  1  0.552464  0.251885  0.168462  1
 
# Source:                            Huan_etal:SciDat(submitted)                                                     
# Class:                             organometallic_polymer_crystal                                                  
# Label:                             Cd-based_polymer                                                                
# Structure prediction method used:  minima-hopping                                                                  
# Number of atoms:                    28
# Number of atom types:                4
# Atom types:                         C  H  O Cd
# Dielectric constant, electronic:   2.99044E+00
# Dielectric constant, ionic:        1.92979E+00
# Dielectric constant, total:        4.92023E+00
# Band gap at the GGA level (eV):    3.43870E+00
# Band gap at the HSE06 level (eV):  5.25010E+00
# Atomization energy (eV/atom):     -5.40802E+00
# Volume of the unit cell (A^3):     2.14173E+02
