# generated using pymatgen
data_CdH14C9O4
_symmetry_space_group_name_H-M   'P 1'
_cell_length_a   3.95246362
_cell_length_b   4.76231806
_cell_length_c   11.86008044
_cell_angle_alpha   84.19170069
_cell_angle_beta   88.93367084
_cell_angle_gamma   71.55955589
_symmetry_Int_Tables_number   1
_chemical_formula_structural   CdH14C9O4
_chemical_formula_sum   'Cd1 H14 C9 O4'
_cell_volume   210.669714222
_cell_formula_units_Z   1
loop_
 _symmetry_equiv_pos_site_id
 _symmetry_equiv_pos_as_xyz
  1  'x, y, z'
loop_
 _atom_site_type_symbol
 _atom_site_label
 _atom_site_symmetry_multiplicity
 _atom_site_fract_x
 _atom_site_fract_y
 _atom_site_fract_z
 _atom_site_occupancy
  C  C1  1  0.643163  0.441568  0.324366  1
  C  C2  1  0.390054  0.522962  0.422099  1
  C  C3  1  0.532837  0.686428  0.506831  1
  C  C4  1  0.240590  0.849628  0.585679  1
  C  C5  1  0.358018  0.016172  0.675562  1
  C  C6  1  0.369129  0.869269  0.797800  1
  C  C7  1  0.630577  0.552241  0.813897  1
  C  C8  1  0.658451  0.374813  0.928430  1
  C  C9  1  0.430052  0.395511  0.015913  1
  H  H10  1  0.135124  0.671211  0.388382  1
  H  H11  1  0.348196  0.322953  0.464245  1
  H  H12  1  0.438727  0.004975  0.856802  1
  H  H13  1  0.101287  0.866696  0.819711  1
  H  H14  1  0.908203  0.594780  0.012488  1
  H  H15  1  0.879049  0.168690  0.935416  1
  H  H16  1  0.636650  0.848893  0.459140  1
  H  H17  1  0.031696  0.008101  0.531550  1
  H  H18  1  0.168516  0.240762  0.673052  1
  H  H19  1  0.615664  0.044249  0.653901  1
  H  H20  1  0.897883  0.559496  0.791812  1
  H  H21  1  0.567930  0.421116  0.751215  1
  H  H22  1  0.755126  0.525254  0.555387  1
  H  H23  1  0.120722  0.691511  0.628634  1
  O  O24  1  0.622394  0.639063  0.239214  1
  O  O25  1  0.876401  0.183772  0.332263  1
  O  O26  1  0.126365  0.656128  0.019935  1
  O  O27  1  0.466937  0.193899  0.104303  1
  Cd  Cd28  1  0.056807  0.955008  0.173234  1
 
# Source:                            Huan_etal:SciDat(submitted)                                                     
# Class:                             organometallic_polymer_crystal                                                  
# Label:                             Cd-based_polymer                                                                
# Structure prediction method used:  minima-hopping                                                                  
# Number of atoms:                    28
# Number of atom types:                4
# Atom types:                         C  H  O Cd
# Dielectric constant, electronic:   3.16076E+00
# Dielectric constant, ionic:        2.92170E+00
# Dielectric constant, total:        6.08246E+00
# Band gap at the GGA level (eV):    2.34630E+00
# Band gap at the HSE06 level (eV):  3.68740E+00
# Atomization energy (eV/atom):     -5.35697E+00
# Volume of the unit cell (A^3):     2.10670E+02
