# generated using pymatgen
data_CdH14C9O4
_symmetry_space_group_name_H-M   'P 1'
_cell_length_a   3.85413504
_cell_length_b   4.28137461
_cell_length_c   13.76320885
_cell_angle_alpha   86.62119882
_cell_angle_beta   78.95996135
_cell_angle_gamma   80.04459887
_symmetry_Int_Tables_number   1
_chemical_formula_structural   CdH14C9O4
_chemical_formula_sum   'Cd1 H14 C9 O4'
_cell_volume   219.468990753
_cell_formula_units_Z   1
loop_
 _symmetry_equiv_pos_site_id
 _symmetry_equiv_pos_as_xyz
  1  'x, y, z'
loop_
 _atom_site_type_symbol
 _atom_site_label
 _atom_site_symmetry_multiplicity
 _atom_site_fract_x
 _atom_site_fract_y
 _atom_site_fract_z
 _atom_site_occupancy
  C  C1  1  0.749512  0.106871  0.276761  1
  C  C2  1  0.712160  0.699997  0.410467  1
  C  C3  1  0.640081  0.908596  0.500284  1
  C  C4  1  0.486428  0.718252  0.592011  1
  C  C5  1  0.303387  0.923840  0.680792  1
  C  C6  1  0.148791  0.726452  0.769970  1
  C  C7  1  0.946751  0.924030  0.858989  1
  C  C8  1  0.812693  0.707198  0.945449  1
  C  C9  1  0.582926  0.868202  0.036487  1
  H  H10  1  0.462605  0.653099  0.393505  1
  H  H11  1  0.885951  0.476963  0.422018  1
  H  H12  1  0.968229  0.584596  0.747204  1
  H  H13  1  0.366955  0.554366  0.792729  1
  H  H14  1  0.646604  0.553068  0.921905  1
  H  H15  1  0.036401  0.544202  0.967563  1
  H  H16  1  0.446132  0.119667  0.489166  1
  H  H17  1  0.289934  0.587198  0.572375  1
  H  H18  1  0.087319  0.100035  0.658753  1
  H  H19  1  0.493120  0.059461  0.701661  1
  H  H20  1  0.720261  0.087711  0.837822  1
  H  H21  1  0.121835  0.069235  0.882210  1
  H  H22  1  0.884811  0.989261  0.510628  1
  H  H23  1  0.699556  0.536965  0.613207  1
  O  O24  1  0.434040  0.213958  0.312154  1
  O  O25  1  0.915227  0.834713  0.318789  1
  O  O26  1  0.402676  0.142493  0.027059  1
  O  O27  1  0.568218  0.713246  0.121192  1
  Cd  Cd28  1  0.116194  0.390611  0.175526  1
 
# Source:                            Huan_etal:SciDat(submitted)                                                     
# Class:                             organometallic_polymer_crystal                                                  
# Label:                             Cd-based_polymer                                                                
# Structure prediction method used:  minima-hopping                                                                  
# Number of atoms:                    28
# Number of atom types:                4
# Atom types:                         C  H  O Cd
# Dielectric constant, electronic:   3.00691E+00
# Dielectric constant, ionic:        2.15383E+00
# Dielectric constant, total:        5.16074E+00
# Band gap at the GGA level (eV):    3.03690E+00
# Band gap at the HSE06 level (eV):  4.55590E+00
# Atomization energy (eV/atom):     -5.35710E+00
# Volume of the unit cell (A^3):     2.19469E+02
