# generated using pymatgen
data_CdH16(C5O2)2
_symmetry_space_group_name_H-M   'P 1'
_cell_length_a   3.77921073
_cell_length_b   4.22554166
_cell_length_c   15.04361571
_cell_angle_alpha   97.38095493
_cell_angle_beta   92.67509327
_cell_angle_gamma   97.65511968
_symmetry_Int_Tables_number   1
_chemical_formula_structural   CdH16(C5O2)2
_chemical_formula_sum   'Cd1 H16 C10 O4'
_cell_volume   235.623080373
_cell_formula_units_Z   1
loop_
 _symmetry_equiv_pos_site_id
 _symmetry_equiv_pos_as_xyz
  1  'x, y, z'
loop_
 _atom_site_type_symbol
 _atom_site_label
 _atom_site_symmetry_multiplicity
 _atom_site_fract_x
 _atom_site_fract_y
 _atom_site_fract_z
 _atom_site_occupancy
  C  C1  1  0.916444  0.929611  0.295687  1
  C  C2  1  0.057126  0.821568  0.380910  1
  C  C3  1  0.182685  0.092168  0.458361  1
  C  C4  1  0.312908  0.956438  0.541862  1
  C  C5  1  0.462983  0.217785  0.619700  1
  C  C6  1  0.587872  0.080165  0.703408  1
  C  C7  1  0.745356  0.341279  0.780586  1
  C  C8  1  0.864293  0.205914  0.865175  1
  C  C9  1  0.033188  0.474950  0.939077  1
  C  C10  1  0.153970  0.357573  0.024690  1
  H  H11  1  0.837013  0.655460  0.401187  1
  H  H12  1  0.268566  0.676538  0.364039  1
  H  H13  1  0.362067  0.926991  0.726410  1
  H  H14  1  0.787081  0.920978  0.685417  1
  H  H15  1  0.634780  0.066384  0.890803  1
  H  H16  1  0.054169  0.036883  0.848131  1
  H  H17  1  0.964939  0.231543  0.474513  1
  H  H18  1  0.092175  0.796025  0.564413  1
  H  H19  1  0.260277  0.373657  0.637269  1
  H  H20  1  0.687410  0.374401  0.597382  1
  H  H21  1  0.548829  0.504169  0.797535  1
  H  H22  1  0.973994  0.490877  0.757645  1
  H  H23  1  0.841637  0.638901  0.957743  1
  H  H24  1  0.261856  0.621334  0.915613  1
  H  H25  1  0.399105  0.257289  0.436675  1
  H  H26  1  0.518707  0.804221  0.523747  1
  O  O27  1  0.990402  0.787854  0.218721  1
  O  O28  1  0.709243  0.146622  0.300216  1
  O  O29  1  0.428720  0.510726  0.073076  1
  O  O30  1  0.994193  0.095249  0.046919  1
  Cd  Cd31  1  0.508439  0.048810  0.149739  1
 
# Source:                            Huan_etal:SciDat(submitted)                                                     
# Class:                             organometallic_polymer_crystal                                                  
# Label:                             Cd-based_polymer                                                                
# Structure prediction method used:  minima-hopping                                                                  
# Number of atoms:                    31
# Number of atom types:                4
# Atom types:                         C  H  O Cd
# Dielectric constant, electronic:   2.92712E+00
# Dielectric constant, ionic:        1.28931E+00
# Dielectric constant, total:        4.21643E+00
# Band gap at the GGA level (eV):    3.60000E+00
# Band gap at the HSE06 level (eV):  5.37860E+00
# Atomization energy (eV/atom):     -5.38625E+00
# Volume of the unit cell (A^3):     2.35623E+02
