# generated using pymatgen
data_CdH16(C5O2)2
_symmetry_space_group_name_H-M   'P 1'
_cell_length_a   3.79493468
_cell_length_b   4.19844933
_cell_length_c   15.38954876
_cell_angle_alpha   96.37345547
_cell_angle_beta   94.32593672
_cell_angle_gamma   102.38588729
_symmetry_Int_Tables_number   1
_chemical_formula_structural   CdH16(C5O2)2
_chemical_formula_sum   'Cd1 H16 C10 O4'
_cell_volume   236.76488122
_cell_formula_units_Z   1
loop_
 _symmetry_equiv_pos_site_id
 _symmetry_equiv_pos_as_xyz
  1  'x, y, z'
loop_
 _atom_site_type_symbol
 _atom_site_label
 _atom_site_symmetry_multiplicity
 _atom_site_fract_x
 _atom_site_fract_y
 _atom_site_fract_z
 _atom_site_occupancy
  C  C1  1  0.902161  0.928603  0.300581  1
  C  C2  1  0.052972  0.825603  0.384010  1
  C  C3  1  0.198913  0.102266  0.459979  1
  C  C4  1  0.329875  0.964828  0.541685  1
  C  C5  1  0.497181  0.229289  0.619217  1
  C  C6  1  0.620702  0.083896  0.700229  1
  C  C7  1  0.790509  0.341838  0.779039  1
  C  C8  1  0.887632  0.184427  0.860136  1
  C  C9  1  0.049449  0.435814  0.941074  1
  C  C10  1  0.038460  0.288263  0.026696  1
  H  H11  1  0.826787  0.648426  0.403903  1
  H  H12  1  0.256342  0.687069  0.367999  1
  H  H13  1  0.386974  0.914353  0.720058  1
  H  H14  1  0.814041  0.933850  0.682585  1
  H  H15  1  0.641641  0.022821  0.876521  1
  H  H16  1  0.076333  0.027151  0.844697  1
  H  H17  1  0.988573  0.234795  0.475435  1
  H  H18  1  0.101793  0.791415  0.562428  1
  H  H19  1  0.300993  0.376569  0.636534  1
  H  H20  1  0.728745  0.400040  0.599044  1
  H  H21  1  0.600499  0.496919  0.795402  1
  H  H22  1  0.031850  0.506476  0.761031  1
  H  H23  1  0.891454  0.624536  0.948626  1
  H  H24  1  0.327020  0.565359  0.935286  1
  H  H25  1  0.422792  0.278848  0.439497  1
  H  H26  1  0.528577  0.820059  0.524412  1
  O  O27  1  0.950951  0.779642  0.224802  1
  O  O28  1  0.705385  0.138207  0.304079  1
  O  O29  1  0.282743  0.420823  0.091629  1
  O  O30  1  0.791052  0.035551  0.032208  1
  Cd  Cd31  1  0.468675  0.989604  0.154898  1
 
# Source:                            Huan_etal:SciDat(submitted)                                                     
# Class:                             organometallic_polymer_crystal                                                  
# Label:                             Cd-based_polymer                                                                
# Structure prediction method used:  minima-hopping                                                                  
# Number of atoms:                    31
# Number of atom types:                4
# Atom types:                         C  H  O Cd
# Dielectric constant, electronic:   2.91713E+00
# Dielectric constant, ionic:        1.37228E+00
# Dielectric constant, total:        4.28941E+00
# Band gap at the GGA level (eV):    3.72970E+00
# Band gap at the HSE06 level (eV):  5.53500E+00
# Atomization energy (eV/atom):     -5.38541E+00
# Volume of the unit cell (A^3):     2.36765E+02
