# generated using pymatgen
data_CdH16(C5O2)2
_symmetry_space_group_name_H-M   'P 1'
_cell_length_a   3.79231053
_cell_length_b   4.22549967
_cell_length_c   14.95535636
_cell_angle_alpha   97.56228236
_cell_angle_beta   92.38945945
_cell_angle_gamma   97.76417969
_symmetry_Int_Tables_number   1
_chemical_formula_structural   CdH16(C5O2)2
_chemical_formula_sum   'Cd1 H16 C10 O4'
_cell_volume   234.956568028
_cell_formula_units_Z   1
loop_
 _symmetry_equiv_pos_site_id
 _symmetry_equiv_pos_as_xyz
  1  'x, y, z'
loop_
 _atom_site_type_symbol
 _atom_site_label
 _atom_site_symmetry_multiplicity
 _atom_site_fract_x
 _atom_site_fract_y
 _atom_site_fract_z
 _atom_site_occupancy
  C  C1  1  0.531670  0.906231  0.295967  1
  C  C2  1  0.663730  0.795922  0.381987  1
  C  C3  1  0.789567  0.067478  0.459757  1
  C  C4  1  0.916086  0.934470  0.544213  1
  C  C5  1  0.067022  0.199925  0.621461  1
  C  C6  1  0.190282  0.068837  0.706537  1
  C  C7  1  0.352749  0.335359  0.782372  1
  C  C8  1  0.471377  0.207420  0.868415  1
  C  C9  1  0.651702  0.480150  0.940325  1
  C  C10  1  0.780398  0.368775  0.026359  1
  H  H11  1  0.440786  0.632839  0.402231  1
  H  H12  1  0.873010  0.648537  0.365424  1
  H  H13  1  0.963750  0.921314  0.731189  1
  H  H14  1  0.385676  0.905689  0.689044  1
  H  H15  1  0.241273  0.076719  0.896372  1
  H  H16  1  0.653692  0.031769  0.851482  1
  H  H17  1  0.573728  0.208815  0.475726  1
  H  H18  1  0.694246  0.777282  0.567586  1
  H  H19  1  0.866256  0.357997  0.638420  1
  H  H20  1  0.291837  0.353194  0.598071  1
  H  H21  1  0.160596  0.502519  0.798681  1
  H  H22  1  0.581995  0.478825  0.757636  1
  H  H23  1  0.467428  0.649705  0.959921  1
  H  H24  1  0.878758  0.619427  0.913958  1
  H  H25  1  0.007560  0.230522  0.437808  1
  H  H26  1  0.119774  0.779925  0.526507  1
  O  O27  1  0.613805  0.771061  0.218807  1
  O  O28  1  0.324774  0.124105  0.301122  1
  O  O29  1  0.057201  0.524403  0.072734  1
  O  O30  1  0.625093  0.107379  0.050744  1
  Cd  Cd31  1  0.134001  0.061651  0.151752  1
 
# Source:                            Huan_etal:SciDat(submitted)                                                     
# Class:                             organometallic_polymer_crystal                                                  
# Label:                             Cd-based_polymer                                                                
# Structure prediction method used:  minima-hopping                                                                  
# Number of atoms:                    31
# Number of atom types:                4
# Atom types:                         C  H  O Cd
# Dielectric constant, electronic:   2.93836E+00
# Dielectric constant, ionic:        1.55227E+00
# Dielectric constant, total:        4.49063E+00
# Band gap at the GGA level (eV):    3.54590E+00
# Band gap at the HSE06 level (eV):  5.32620E+00
# Atomization energy (eV/atom):     -5.38576E+00
# Volume of the unit cell (A^3):     2.34957E+02
