# generated using pymatgen
data_CdH18C11O4
_symmetry_space_group_name_H-M   'P 1'
_cell_length_a   3.74888719
_cell_length_b   4.24635971
_cell_length_c   16.01620302
_cell_angle_alpha   85.98965893
_cell_angle_beta   87.77440653
_cell_angle_gamma   80.70289736
_symmetry_Int_Tables_number   1
_chemical_formula_structural   CdH18C11O4
_chemical_formula_sum   'Cd1 H18 C11 O4'
_cell_volume   250.900381892
_cell_formula_units_Z   1
loop_
 _symmetry_equiv_pos_site_id
 _symmetry_equiv_pos_as_xyz
  1  'x, y, z'
loop_
 _atom_site_type_symbol
 _atom_site_label
 _atom_site_symmetry_multiplicity
 _atom_site_fract_x
 _atom_site_fract_y
 _atom_site_fract_z
 _atom_site_occupancy
  C  C1  1  0.511717  0.582895  0.728071  1
  C  C2  1  0.674679  0.449621  0.647323  1
  C  C3  1  0.749894  0.686038  0.574714  1
  C  C4  1  0.900458  0.504245  0.498160  1
  C  C5  1  0.997698  0.718106  0.422387  1
  C  C6  1  0.145830  0.524887  0.347677  1
  C  C7  1  0.245723  0.730546  0.270463  1
  C  C8  1  0.396675  0.530155  0.197279  1
  C  C9  1  0.494223  0.729708  0.118671  1
  C  C10  1  0.658822  0.516020  0.049209  1
  C  C11  1  0.761580  0.693772  0.969102  1
  H  H12  1  0.919736  0.282539  0.662652  1
  H  H13  1  0.484327  0.299325  0.628294  1
  H  H14  1  0.384849  0.353799  0.366804  1
  H  H15  1  0.946643  0.379657  0.330735  1
  H  H16  1  0.637186  0.363418  0.217572  1
  H  H17  1  0.200522  0.379983  0.181561  1
  H  H18  1  0.898093  0.352145  0.070700  1
  H  H19  1  0.467727  0.365608  0.031839  1
  H  H20  1  0.943486  0.831517  0.593958  1
  H  H21  1  0.141651  0.333372  0.516066  1
  H  H22  1  0.196954  0.861934  0.440042  1
  H  H23  1  0.758191  0.889305  0.403682  1
  H  H24  1  0.444223  0.876751  0.287220  1
  H  H25  1  0.006680  0.899833  0.250474  1
  H  H26  1  0.683003  0.886256  0.134595  1
  H  H27  1  0.252756  0.887681  0.095619  1
  H  H28  1  0.502309  0.850086  0.558574  1
  H  H29  1  0.704121  0.358503  0.479844  1
  O  O30  1  0.579836  0.407055  0.796540  1
  O  O31  1  0.297485  0.849403  0.726258  1
  O  O32  1  0.590491  0.973791  0.948598  1
  O  O33  1  0.030635  0.571434  0.923640  1
  Cd  Cd34  1  0.110960  0.089481  0.850852  1
 
# Source:                            Huan_etal:SciDat(submitted)                                                     
# Class:                             organometallic_polymer_crystal                                                  
# Label:                             Cd-based_polymer                                                                
# Structure prediction method used:  minima-hopping                                                                  
# Number of atoms:                    34
# Number of atom types:                4
# Atom types:                         C  H  O Cd
# Dielectric constant, electronic:   2.95012E+00
# Dielectric constant, ionic:        1.43277E+00
# Dielectric constant, total:        4.38290E+00
# Band gap at the GGA level (eV):    3.76440E+00
# Band gap at the HSE06 level (eV):  5.58420E+00
# Atomization energy (eV/atom):     -5.37013E+00
# Volume of the unit cell (A^3):     2.50900E+02
