# generated using pymatgen
data_CdH18C11O4
_symmetry_space_group_name_H-M   'P 1'
_cell_length_a   3.90268825
_cell_length_b   4.21241727
_cell_length_c   15.97187195
_cell_angle_alpha   96.91385485
_cell_angle_beta   92.62232677
_cell_angle_gamma   102.24406253
_symmetry_Int_Tables_number   1
_chemical_formula_structural   CdH18C11O4
_chemical_formula_sum   'Cd1 H18 C11 O4'
_cell_volume   254.046401794
_cell_formula_units_Z   1
loop_
 _symmetry_equiv_pos_site_id
 _symmetry_equiv_pos_as_xyz
  1  'x, y, z'
loop_
 _atom_site_type_symbol
 _atom_site_label
 _atom_site_symmetry_multiplicity
 _atom_site_fract_x
 _atom_site_fract_y
 _atom_site_fract_z
 _atom_site_occupancy
  C  C1  1  0.270279  0.079007  0.263308  1
  C  C2  1  0.271000  0.930651  0.345240  1
  C  C3  1  0.421720  0.183048  0.422643  1
  C  C4  1  0.522151  0.027591  0.499476  1
  C  C5  1  0.687688  0.284493  0.574690  1
  C  C6  1  0.804955  0.134463  0.650900  1
  C  C7  1  0.984891  0.388390  0.725521  1
  C  C8  1  0.094828  0.223816  0.799925  1
  C  C9  1  0.335716  0.443871  0.872829  1
  C  C10  1  0.153843  0.623892  0.941594  1
  C  C11  1  0.403319  0.756535  0.019457  1
  H  H12  1  0.005999  0.792859  0.353033  1
  H  H13  1  0.435346  0.750760  0.335728  1
  H  H14  1  0.576458  0.971982  0.672184  1
  H  H15  1  0.985357  0.977509  0.631037  1
  H  H16  1  0.859290  0.086510  0.824900  1
  H  H17  1  0.237651  0.040536  0.774620  1
  H  H18  1  0.059461  0.825362  0.918751  1
  H  H19  1  0.933177  0.449313  0.960027  1
  H  H20  1  0.233049  0.335283  0.439281  1
  H  H21  1  0.290748  0.862237  0.518681  1
  H  H22  1  0.501191  0.436318  0.593438  1
  H  H23  1  0.915457  0.451113  0.554313  1
  H  H24  1  0.810302  0.550743  0.744877  1
  H  H25  1  0.218848  0.543966  0.704468  1
  H  H26  1  0.534307  0.623238  0.847194  1
  H  H27  1  0.473563  0.285849  0.903978  1
  H  H28  1  0.656740  0.347863  0.405398  1
  H  H29  1  0.708542  0.874281  0.481495  1
  O  O30  1  0.026351  0.950970  0.203942  1
  O  O31  1  0.509994  0.329378  0.255794  1
  O  O32  1  0.640107  0.014546  0.018861  1
  O  O33  1  0.374309  0.591296  0.083480  1
  Cd  Cd34  1  0.846101  0.384303  0.141068  1
 
# Source:                            Huan_etal:SciDat(submitted)                                                     
# Class:                             organometallic_polymer_crystal                                                  
# Label:                             Cd-based_polymer                                                                
# Structure prediction method used:  minima-hopping                                                                  
# Number of atoms:                    34
# Number of atom types:                4
# Atom types:                         C  H  O Cd
# Dielectric constant, electronic:   2.93115E+00
# Dielectric constant, ionic:        1.88809E+00
# Dielectric constant, total:        4.81924E+00
# Band gap at the GGA level (eV):    3.88110E+00
# Band gap at the HSE06 level (eV):  5.76740E+00
# Atomization energy (eV/atom):     -5.36568E+00
# Volume of the unit cell (A^3):     2.54046E+02
