# generated using pymatgen
data_CdH18C11O4
_symmetry_space_group_name_H-M   'P 1'
_cell_length_a   3.75275786
_cell_length_b   4.25356636
_cell_length_c   16.21200885
_cell_angle_alpha   100.84974540
_cell_angle_beta   89.46679323
_cell_angle_gamma   99.18711711
_symmetry_Int_Tables_number   1
_chemical_formula_structural   CdH18C11O4
_chemical_formula_sum   'Cd1 H18 C11 O4'
_cell_volume   250.842111267
_cell_formula_units_Z   1
loop_
 _symmetry_equiv_pos_site_id
 _symmetry_equiv_pos_as_xyz
  1  'x, y, z'
loop_
 _atom_site_type_symbol
 _atom_site_label
 _atom_site_symmetry_multiplicity
 _atom_site_fract_x
 _atom_site_fract_y
 _atom_site_fract_z
 _atom_site_occupancy
  C  C1  1  0.595214  0.008916  0.267055  1
  C  C2  1  0.706787  0.915933  0.347403  1
  C  C3  1  0.884594  0.200897  0.414296  1
  C  C4  1  0.981414  0.088040  0.494477  1
  C  C5  1  0.138336  0.365206  0.565868  1
  C  C6  1  0.234861  0.242280  0.644511  1
  C  C7  1  0.383605  0.511413  0.718523  1
  C  C8  1  0.473854  0.373893  0.795258  1
  C  C9  1  0.622968  0.629607  0.872064  1
  C  C10  1  0.688579  0.462752  0.945091  1
  C  C11  1  0.850826  0.671676  0.026259  1
  H  H12  1  0.468453  0.782494  0.371900  1
  H  H13  1  0.890411  0.741907  0.329268  1
  H  H14  1  0.994294  0.094960  0.664584  1
  H  H15  1  0.431860  0.077418  0.628470  1
  H  H16  1  0.229845  0.224416  0.813173  1
  H  H17  1  0.668110  0.207292  0.777541  1
  H  H18  1  0.439669  0.315631  0.960207  1
  H  H19  1  0.874827  0.289429  0.926239  1
  H  H20  1  0.703929  0.380624  0.429603  1
  H  H21  1  0.739579  0.949674  0.516730  1
  H  H22  1  0.944286  0.532922  0.581848  1
  H  H23  1  0.379270  0.506900  0.544207  1
  H  H24  1  0.186884  0.675954  0.735479  1
  H  H25  1  0.625728  0.659281  0.699305  1
  H  H26  1  0.431806  0.797073  0.890907  1
  H  H27  1  0.873844  0.773894  0.856274  1
  H  H28  1  0.127302  0.324475  0.388647  1
  H  H29  1  0.172874  0.917444  0.479737  1
  O  O30  1  0.325190  0.839526  0.223252  1
  O  O31  1  0.759943  0.268129  0.244894  1
  O  O32  1  0.065810  0.935542  0.024529  1
  O  O33  1  0.781597  0.561368  0.094604  1
  Cd  Cd34  1  0.250278  0.292065  0.149030  1
 
# Source:                            Huan_etal:SciDat(submitted)                                                     
# Class:                             organometallic_polymer_crystal                                                  
# Label:                             Cd-based_polymer                                                                
# Structure prediction method used:  minima-hopping                                                                  
# Number of atoms:                    34
# Number of atom types:                4
# Atom types:                         C  H  O Cd
# Dielectric constant, electronic:   2.94896E+00
# Dielectric constant, ionic:        1.44728E+00
# Dielectric constant, total:        4.39624E+00
# Band gap at the GGA level (eV):    3.74290E+00
# Band gap at the HSE06 level (eV):  5.56790E+00
# Atomization energy (eV/atom):     -5.37011E+00
# Volume of the unit cell (A^3):     2.50842E+02
