# generated using pymatgen
data_CdH18C11O4
_symmetry_space_group_name_H-M   'P 1'
_cell_length_a   3.74825752
_cell_length_b   4.24583964
_cell_length_c   16.02282660
_cell_angle_alpha   86.03064174
_cell_angle_beta   87.73920545
_cell_angle_gamma   80.64794895
_symmetry_Int_Tables_number   1
_chemical_formula_structural   CdH18C11O4
_chemical_formula_sum   'Cd1 H18 C11 O4'
_cell_volume   250.899439959
_cell_formula_units_Z   1
loop_
 _symmetry_equiv_pos_site_id
 _symmetry_equiv_pos_as_xyz
  1  'x, y, z'
loop_
 _atom_site_type_symbol
 _atom_site_label
 _atom_site_symmetry_multiplicity
 _atom_site_fract_x
 _atom_site_fract_y
 _atom_site_fract_z
 _atom_site_occupancy
  C  C1  1  0.130549  0.354342  0.264711  1
  C  C2  1  0.966162  0.487803  0.345347  1
  C  C3  1  0.890883  0.251703  0.417943  1
  C  C4  1  0.739177  0.434132  0.494393  1
  C  C5  1  0.641821  0.220635  0.570168  1
  C  C6  1  0.493369  0.413904  0.644904  1
  C  C7  1  0.393714  0.207787  0.721987  1
  C  C8  1  0.243401  0.407472  0.795391  1
  C  C9  1  0.146339  0.207155  0.873835  1
  C  C10  1  0.984093  0.420357  0.943671  1
  C  C11  1  0.883279  0.241813  0.023756  1
  H  H12  1  0.155802  0.638648  0.364423  1
  H  H13  1  0.720806  0.654534  0.329922  1
  H  H14  1  0.692421  0.559073  0.661894  1
  H  H15  1  0.254186  0.585109  0.625867  1
  H  H16  1  0.439977  0.557006  0.811196  1
  H  H17  1  0.002795  0.574847  0.775383  1
  H  H18  1  0.176304  0.569999  0.960843  1
  H  H19  1  0.744395  0.584993  0.922707  1
  H  H20  1  0.138686  0.087909  0.434194  1
  H  H21  1  0.935068  0.580277  0.512686  1
  H  H22  1  0.881452  0.049401  0.588844  1
  H  H23  1  0.442686  0.076809  0.552523  1
  H  H24  1  0.632875  0.038010  0.741722  1
  H  H25  1  0.194972  0.062042  0.705183  1
  H  H26  1  0.387761  0.047931  0.896476  1
  H  H27  1  0.956241  0.051848  0.857967  1
  H  H28  1  0.697784  0.105784  0.398705  1
  H  H29  1  0.497784  0.604731  0.476365  1
  O  O30  1  0.063991  0.530705  0.196307  1
  O  O31  1  0.344641  0.087613  0.266550  1
  O  O32  1  0.055748  0.962026  0.043942  1
  O  O33  1  0.614520  0.363467  0.069546  1
  Cd  Cd34  1  0.533059  0.846769  0.142010  1
 
# Source:                            Huan_etal:SciDat(submitted)                                                     
# Class:                             organometallic_polymer_crystal                                                  
# Label:                             Cd-based_polymer                                                                
# Structure prediction method used:  minima-hopping                                                                  
# Number of atoms:                    34
# Number of atom types:                4
# Atom types:                         C  H  O Cd
# Dielectric constant, electronic:   2.94992E+00
# Dielectric constant, ionic:        1.43305E+00
# Dielectric constant, total:        4.38297E+00
# Band gap at the GGA level (eV):    3.77380E+00
# Band gap at the HSE06 level (eV):  5.59730E+00
# Atomization energy (eV/atom):     -5.37011E+00
# Volume of the unit cell (A^3):     2.50899E+02
