# generated using pymatgen
data_CdH18C11O4
_symmetry_space_group_name_H-M   'P 1'
_cell_length_a   3.90306984
_cell_length_b   4.27703929
_cell_length_c   15.45688328
_cell_angle_alpha   97.59750421
_cell_angle_beta   91.27079842
_cell_angle_gamma   99.65884909
_symmetry_Int_Tables_number   1
_chemical_formula_structural   CdH18C11O4
_chemical_formula_sum   'Cd1 H18 C11 O4'
_cell_volume   251.87996365
_cell_formula_units_Z   1
loop_
 _symmetry_equiv_pos_site_id
 _symmetry_equiv_pos_as_xyz
  1  'x, y, z'
loop_
 _atom_site_type_symbol
 _atom_site_label
 _atom_site_symmetry_multiplicity
 _atom_site_fract_x
 _atom_site_fract_y
 _atom_site_fract_z
 _atom_site_occupancy
  C  C1  1  0.554133  0.956902  0.272249  1
  C  C2  1  0.682120  0.843050  0.353511  1
  C  C3  1  0.884027  0.106312  0.421744  1
  C  C4  1  0.987918  0.963022  0.502433  1
  C  C5  1  0.218332  0.197145  0.573351  1
  C  C6  1  0.024663  0.385025  0.641640  1
  C  C7  1  0.250235  0.609127  0.715423  1
  C  C8  1  0.347442  0.443025  0.792253  1
  C  C9  1  0.524643  0.676215  0.870753  1
  C  C10  1  0.596871  0.492074  0.945583  1
  C  C11  1  0.774596  0.680239  0.029211  1
  H  H12  1  0.457395  0.710195  0.381695  1
  H  H13  1  0.846555  0.668663  0.331553  1
  H  H14  1  0.868941  0.526039  0.608628  1
  H  H15  1  0.841070  0.214008  0.671939  1
  H  H16  1  0.109367  0.304053  0.813695  1
  H  H17  1  0.515163  0.268952  0.771280  1
  H  H18  1  0.355991  0.347946  0.962745  1
  H  H19  1  0.766134  0.318618  0.924482  1
  H  H20  1  0.728108  0.292291  0.440143  1
  H  H21  1  0.751607  0.850362  0.530834  1
  H  H22  1  0.398424  0.365609  0.541297  1
  H  H23  1  0.377479  0.060496  0.606941  1
  H  H24  1  0.103868  0.796107  0.740642  1
  H  H25  1  0.487257  0.733098  0.689708  1
  H  H26  1  0.354915  0.846828  0.892810  1
  H  H27  1  0.767164  0.814238  0.851830  1
  H  H28  1  0.117384  0.223510  0.392918  1
  H  H29  1  0.127724  0.767751  0.480279  1
  O  O30  1  0.276932  0.802494  0.230063  1
  O  O31  1  0.710861  0.216732  0.247632  1
  O  O32  1  0.985252  0.942511  0.026313  1
  O  O33  1  0.720084  0.554012  0.099955  1
  Cd  Cd34  1  0.196673  0.273055  0.153778  1
 
# Source:                            Huan_etal:SciDat(submitted)                                                     
# Class:                             organometallic_polymer_crystal                                                  
# Label:                             Cd-based_polymer                                                                
# Structure prediction method used:  minima-hopping                                                                  
# Number of atoms:                    34
# Number of atom types:                4
# Atom types:                         C  H  O Cd
# Dielectric constant, electronic:   2.95010E+00
# Dielectric constant, ionic:        1.58046E+00
# Dielectric constant, total:        4.53056E+00
# Band gap at the GGA level (eV):    3.65060E+00
# Band gap at the HSE06 level (eV):  5.46510E+00
# Atomization energy (eV/atom):     -5.36178E+00
# Volume of the unit cell (A^3):     2.51880E+02
