# generated using pymatgen
data_CdH18C11O4
_symmetry_space_group_name_H-M   'P 1'
_cell_length_a   3.98018472
_cell_length_b   4.20381767
_cell_length_c   15.68588451
_cell_angle_alpha   93.82643497
_cell_angle_beta   92.71219212
_cell_angle_gamma   104.19615806
_symmetry_Int_Tables_number   1
_chemical_formula_structural   CdH18C11O4
_chemical_formula_sum   'Cd1 H18 C11 O4'
_cell_volume   253.322809942
_cell_formula_units_Z   1
loop_
 _symmetry_equiv_pos_site_id
 _symmetry_equiv_pos_as_xyz
  1  'x, y, z'
loop_
 _atom_site_type_symbol
 _atom_site_label
 _atom_site_symmetry_multiplicity
 _atom_site_fract_x
 _atom_site_fract_y
 _atom_site_fract_z
 _atom_site_occupancy
  C  C1  1  0.342806  0.701505  0.270239  1
  C  C2  1  0.182722  0.608743  0.354510  1
  C  C3  1  0.342665  0.852137  0.432366  1
  C  C4  1  0.491140  0.698771  0.507229  1
  C  C5  1  0.224322  0.525625  0.567097  1
  C  C6  1  0.377448  0.386546  0.643914  1
  C  C7  1  0.549659  0.647875  0.716267  1
  C  C8  1  0.682026  0.498068  0.793559  1
  C  C9  1  0.836811  0.751925  0.868655  1
  C  C10  1  0.959627  0.586224  0.945053  1
  C  C11  1  0.056049  0.824808  0.024004  1
  H  H12  1  0.903526  0.582994  0.344015  1
  H  H13  1  0.208803  0.359753  0.362825  1
  H  H14  1  0.168231  0.207373  0.670490  1
  H  H15  1  0.563787  0.249976  0.622935  1
  H  H16  1  0.466135  0.311717  0.815548  1
  H  H17  1  0.874986  0.366099  0.773986  1
  H  H18  1  0.752349  0.377412  0.958742  1
  H  H19  1  0.185681  0.495771  0.929285  1
  H  H20  1  0.150650  0.977912  0.455017  1
  H  H21  1  0.632458  0.526072  0.481200  1
  H  H22  1  0.032904  0.327327  0.530071  1
  H  H23  1  0.081875  0.699529  0.591635  1
  H  H24  1  0.361954  0.784672  0.736751  1
  H  H25  1  0.765381  0.829155  0.692780  1
  H  H26  1  0.641444  0.879359  0.888952  1
  H  H27  1  0.054896  0.940214  0.848687  1
  H  H28  1  0.553479  0.041008  0.410201  1
  H  H29  1  0.683322  0.893718  0.545030  1
  O  O30  1  0.245818  0.489056  0.204288  1
  O  O31  1  0.570015  0.970816  0.267765  1
  O  O32  1  0.314876  0.072550  0.022696  1
  O  O33  1  0.864192  0.778243  0.088684  1
  Cd  Cd34  1  0.677481  0.248620  0.145299  1
 
# Source:                            Huan_etal:SciDat(submitted)                                                     
# Class:                             organometallic_polymer_crystal                                                  
# Label:                             Cd-based_polymer                                                                
# Structure prediction method used:  minima-hopping                                                                  
# Number of atoms:                    34
# Number of atom types:                4
# Atom types:                         C  H  O Cd
# Dielectric constant, electronic:   2.93125E+00
# Dielectric constant, ionic:        1.84578E+00
# Dielectric constant, total:        4.77703E+00
# Band gap at the GGA level (eV):    3.86800E+00
# Band gap at the HSE06 level (eV):  5.74990E+00
# Atomization energy (eV/atom):     -5.36356E+00
# Volume of the unit cell (A^3):     2.53323E+02
