# generated using pymatgen
data_CdH18C11O4
_symmetry_space_group_name_H-M   'P 1'
_cell_length_a   3.79240852
_cell_length_b   4.34099781
_cell_length_c   15.99490772
_cell_angle_alpha   93.99058600
_cell_angle_beta   91.45404102
_cell_angle_gamma   102.55869537
_symmetry_Int_Tables_number   1
_chemical_formula_structural   CdH18C11O4
_chemical_formula_sum   'Cd1 H18 C11 O4'
_cell_volume   256.176155088
_cell_formula_units_Z   1
loop_
 _symmetry_equiv_pos_site_id
 _symmetry_equiv_pos_as_xyz
  1  'x, y, z'
loop_
 _atom_site_type_symbol
 _atom_site_label
 _atom_site_symmetry_multiplicity
 _atom_site_fract_x
 _atom_site_fract_y
 _atom_site_fract_z
 _atom_site_occupancy
  C  C1  1  0.449468  0.290945  0.273231  1
  C  C2  1  0.342571  0.449183  0.353017  1
  C  C3  1  0.165864  0.223561  0.417028  1
  C  C4  1  0.090099  0.405941  0.497812  1
  C  C5  1  0.937692  0.193226  0.566890  1
  C  C6  1  0.861271  0.381887  0.646528  1
  C  C7  1  0.713690  0.172854  0.716730  1
  C  C8  1  0.636400  0.362725  0.796087  1
  C  C9  1  0.478100  0.150612  0.865037  1
  C  C10  1  0.393058  0.340149  0.942310  1
  C  C11  1  0.065408  0.224881  0.069522  1
  H  H12  1  0.585850  0.611738  0.380606  1
  H  H13  1  0.163047  0.598634  0.333763  1
  H  H14  1  0.110683  0.549353  0.669503  1
  H  H15  1  0.669578  0.527057  0.630960  1
  H  H16  1  0.885680  0.527571  0.820062  1
  H  H17  1  0.448273  0.510227  0.779771  1
  H  H18  1  0.636012  0.472124  0.977393  1
  H  H19  1  0.227569  0.508069  0.928170  1
  H  H20  1  0.340985  0.063379  0.432007  1
  H  H21  1  0.341184  0.568235  0.521969  1
  H  H22  1  0.127310  0.046056  0.582456  1
  H  H23  1  0.687755  0.028336  0.543219  1
  H  H24  1  0.904888  0.027409  0.732381  1
  H  H25  1  0.464137  0.005863  0.693672  1
  H  H26  1  0.664545  0.004535  0.883324  1
  H  H27  1  0.228904  0.987969  0.840347  1
  H  H28  1  0.914253  0.073002  0.389367  1
  H  H29  1  0.903333  0.556795  0.483400  1
  O  O30  1  0.696252  0.443781  0.229436  1
  O  O31  1  0.302787  0.999495  0.251775  1
  O  O32  1  0.181494  0.105346  0.996372  1
  O  O33  1  0.159892  0.515799  0.088477  1
  Cd  Cd34  1  0.744165  0.877459  0.153982  1
 
# Source:                            Huan_etal:SciDat(submitted)                                                     
# Class:                             organometallic_polymer_crystal                                                  
# Label:                             Cd-based_polymer                                                                
# Structure prediction method used:  minima-hopping                                                                  
# Number of atoms:                    34
# Number of atom types:                4
# Atom types:                         C  H  O Cd
# Dielectric constant, electronic:   2.98846E+00
# Dielectric constant, ionic:        1.30357E+00
# Dielectric constant, total:        4.29203E+00
# Band gap at the GGA level (eV):    3.27470E+00
# Band gap at the HSE06 level (eV):  4.84040E+00
# Atomization energy (eV/atom):     -5.32587E+00
# Volume of the unit cell (A^3):     2.56176E+02
