# generated using pymatgen
data_CdH20(C3O)4
_symmetry_space_group_name_H-M   'P 1'
_cell_length_a   3.93054263
_cell_length_b   4.20354573
_cell_length_c   17.50135485
_cell_angle_alpha   86.58258193
_cell_angle_beta   74.71749083
_cell_angle_gamma   77.30773672
_symmetry_Int_Tables_number   1
_chemical_formula_structural   CdH20(C3O)4
_chemical_formula_sum   'Cd1 H20 C12 O4'
_cell_volume   272.119364884
_cell_formula_units_Z   1
loop_
 _symmetry_equiv_pos_site_id
 _symmetry_equiv_pos_as_xyz
  1  'x, y, z'
loop_
 _atom_site_type_symbol
 _atom_site_label
 _atom_site_symmetry_multiplicity
 _atom_site_fract_x
 _atom_site_fract_y
 _atom_site_fract_z
 _atom_site_occupancy
  C  C1  1  0.015366  0.353701  0.744204  1
  C  C2  1  0.028121  0.563535  0.670638  1
  C  C3  1  0.015864  0.368824  0.599783  1
  C  C4  1  0.975578  0.592194  0.528847  1
  C  C5  1  0.958422  0.411417  0.456889  1
  C  C6  1  0.903545  0.640072  0.387602  1
  C  C7  1  0.883087  0.465131  0.315073  1
  C  C8  1  0.816178  0.700302  0.247654  1
  C  C9  1  0.788365  0.533396  0.174650  1
  C  C10  1  0.687619  0.779049  0.111716  1
  C  C11  1  0.611035  0.626316  0.040981  1
  C  C12  1  0.934534  0.543501  0.970484  1
  H  H13  1  0.799782  0.770618  0.682566  1
  H  H14  1  0.275597  0.657306  0.656716  1
  H  H15  1  0.654338  0.825360  0.407655  1
  H  H16  1  0.122243  0.773724  0.370450  1
  H  H17  1  0.565012  0.880573  0.269951  1
  H  H18  1  0.029725  0.839239  0.230599  1
  H  H19  1  0.439730  0.951172  0.140167  1
  H  H20  1  0.891522  0.925356  0.090274  1
  H  H21  1  0.788856  0.245654  0.617476  1
  H  H22  1  0.729078  0.782446  0.546935  1
  H  H23  1  0.738737  0.278788  0.474363  1
  H  H24  1  0.207550  0.225567  0.437428  1
  H  H25  1  0.667887  0.327557  0.332552  1
  H  H26  1  0.134518  0.283972  0.293847  1
  H  H27  1  0.582574  0.386322  0.193117  1
  H  H28  1  0.042041  0.362375  0.149197  1
  H  H29  1  0.403313  0.801560  0.021477  1
  H  H30  1  0.510885  0.405363  0.059995  1
  H  H31  1  0.261294  0.177542  0.583236  1
  H  H32  1  0.199215  0.720264  0.511924  1
  O  O33  1  0.737149  0.423681  0.804351  1
  O  O34  1  0.271692  0.107121  0.743389  1
  O  O35  1  0.169911  0.283931  0.971023  1
  O  O36  1  0.960581  0.750681  0.911928  1
  Cd  Cd37  1  0.474044  0.969968  0.856969  1
 
# Source:                            Huan_etal:SciDat(submitted)                                                     
# Class:                             organometallic_polymer_crystal                                                  
# Label:                             Cd-based_polymer                                                                
# Structure prediction method used:  minima-hopping                                                                  
# Number of atoms:                    37
# Number of atom types:                4
# Atom types:                         C  H  O Cd
# Dielectric constant, electronic:   2.93137E+00
# Dielectric constant, ionic:        2.00580E+00
# Dielectric constant, total:        4.93717E+00
# Band gap at the GGA level (eV):    3.84800E+00
# Band gap at the HSE06 level (eV):  5.72580E+00
# Atomization energy (eV/atom):     -5.35109E+00
# Volume of the unit cell (A^3):     2.72119E+02
