# generated using pymatgen
data_CdH20(C3O)4
_symmetry_space_group_name_H-M   'P 1'
_cell_length_a   3.85558217
_cell_length_b   4.53237963
_cell_length_c   16.96198889
_cell_angle_alpha   94.94314061
_cell_angle_beta   96.46151945
_cell_angle_gamma   94.88197662
_symmetry_Int_Tables_number   1
_chemical_formula_structural   CdH20(C3O)4
_chemical_formula_sum   'Cd1 H20 C12 O4'
_cell_volume   292.083226645
_cell_formula_units_Z   1
loop_
 _symmetry_equiv_pos_site_id
 _symmetry_equiv_pos_as_xyz
  1  'x, y, z'
loop_
 _atom_site_type_symbol
 _atom_site_label
 _atom_site_symmetry_multiplicity
 _atom_site_fract_x
 _atom_site_fract_y
 _atom_site_fract_z
 _atom_site_occupancy
  C  C1  1  0.501951  0.889084  0.242058  1
  C  C2  1  0.652716  0.742782  0.315298  1
  C  C3  1  0.814349  0.982794  0.382448  1
  C  C4  1  0.913649  0.873493  0.464670  1
  C  C5  1  0.091037  0.131694  0.524184  1
  C  C6  1  0.233971  0.033716  0.604743  1
  C  C7  1  0.400721  0.295366  0.664157  1
  C  C8  1  0.553846  0.193763  0.744081  1
  C  C9  1  0.723218  0.445551  0.802892  1
  C  C10  1  0.621691  0.509587  0.875112  1
  C  C11  1  0.786970  0.737357  0.937398  1
  C  C12  1  0.024494  0.957356  0.926024  1
  H  H13  1  0.252657  0.644924  0.374735  1
  H  H14  1  0.847699  0.604990  0.294458  1
  H  H15  1  0.022366  0.911995  0.630571  1
  H  H16  1  0.428705  0.874984  0.595721  1
  H  H17  1  0.347185  0.067060  0.769901  1
  H  H18  1  0.747857  0.036530  0.731943  1
  H  H19  1  0.137298  0.124309  0.973334  1
  H  H20  1  0.399329  0.376458  0.891097  1
  H  H21  1  0.631937  0.152318  0.389081  1
  H  H22  1  0.680567  0.773619  0.487457  1
  H  H23  1  0.903135  0.296609  0.533165  1
  H  H24  1  0.306887  0.246131  0.498009  1
  H  H25  1  0.205270  0.451579  0.674952  1
  H  H26  1  0.608544  0.420412  0.637919  1
  H  H27  1  0.948688  0.573507  0.785080  1
  H  H28  1  0.107893  0.981331  0.868012  1
  H  H29  1  0.706387  0.717009  0.996229  1
  H  H30  1  0.629966  0.193117  0.020406  1
  H  H31  1  0.044140  0.098628  0.362315  1
  H  H32  1  0.089042  0.695316  0.462671  1
  O  O33  1  0.234938  0.761263  0.195017  1
  O  O34  1  0.643356  0.143706  0.231089  1
  O  O35  1  0.397062  0.532800  0.342283  1
  O  O36  1  0.650639  0.307005  0.072234  1
  Cd  Cd37  1  0.166505  0.263114  0.138598  1
 
# Source:                            Huan_etal:SciDat(submitted)                                                     
# Class:                             organometallic_polymer_crystal                                                  
# Label:                             Cd-based_polymer                                                                
# Structure prediction method used:  minima-hopping                                                                  
# Number of atoms:                    37
# Number of atom types:                4
# Atom types:                         C  H  O Cd
# Dielectric constant, electronic:   2.94219E+00
# Dielectric constant, ionic:        1.25620E+00
# Dielectric constant, total:        4.19840E+00
# Band gap at the GGA level (eV):    2.30380E+00
# Band gap at the HSE06 level (eV):  3.47010E+00
# Atomization energy (eV/atom):     -5.28723E+00
# Volume of the unit cell (A^3):     2.92083E+02
