# generated using pymatgen
data_SnH4(CCl)2
_symmetry_space_group_name_H-M   'P 1'
_cell_length_a   4.06580258
_cell_length_b   6.41450314
_cell_length_c   10.60425472
_cell_angle_alpha   103.98754583
_cell_angle_beta   90.00876316
_cell_angle_gamma   108.45813847
_symmetry_Int_Tables_number   1
_chemical_formula_structural   SnH4(CCl)2
_chemical_formula_sum   'Sn2 H8 C4 Cl4'
_cell_volume   253.668961089
_cell_formula_units_Z   2
loop_
 _symmetry_equiv_pos_site_id
 _symmetry_equiv_pos_as_xyz
  1  'x, y, z'
loop_
 _atom_site_type_symbol
 _atom_site_label
 _atom_site_symmetry_multiplicity
 _atom_site_fract_x
 _atom_site_fract_y
 _atom_site_fract_z
 _atom_site_occupancy
  Sn  Sn1  1  0.010267  0.972567  0.729392  1
  Sn  Sn2  1  0.023980  0.972604  0.229398  1
  C  C3  1  0.954679  0.872841  0.422137  1
  C  C4  1  0.079001  0.072369  0.536598  1
  C  C5  1  0.053655  0.072322  0.036589  1
  C  C6  1  0.979970  0.872854  0.922162  1
  Cl  Cl7  1  0.664975  0.280342  0.318707  1
  Cl  Cl8  1  0.368698  0.664650  0.640035  1
  Cl  Cl9  1  0.357578  0.664865  0.140083  1
  Cl  Cl10  1  0.676269  0.280479  0.818740  1
  H  H11  1  0.168600  0.782694  0.913040  1
  H  H12  1  0.865005  0.162461  0.045691  1
  H  H13  1  0.357417  0.163378  0.545854  1
  H  H14  1  0.676216  0.781830  0.412927  1
  H  H15  1  0.717195  0.752076  0.910871  1
  H  H16  1  0.316406  0.193095  0.047899  1
  H  H17  1  0.935624  0.192424  0.547803  1
  H  H18  1  0.098024  0.752739  0.410934  1
 
# Source:                            Huan_etal:SciDat(submitted)                                                     
# Class:                             organometallic_polymer_crystal                                                  
# Label:                             SnCl2-based_polymer                                                             
# Structure prediction method used:  minima-hopping                                                                  
# Number of atoms:                    18
# Number of atom types:                4
# Atom types:                        Sn  C Cl  H
# Dielectric constant, electronic:   5.28580E+00
# Dielectric constant, ionic:        2.30431E+01
# Dielectric constant, total:        2.83289E+01
# Band gap at the GGA level (eV):    1.93390E+00
# Band gap at the HSE06 level (eV):  2.81620E+00
# Atomization energy (eV/atom):     -4.39747E+00
# Volume of the unit cell (A^3):     2.53669E+02
