# generated using pymatgen
data_SnH4(CCl)2
_symmetry_space_group_name_H-M   'P 1'
_cell_length_a   4.44889328
_cell_length_b   6.23980474
_cell_length_c   10.39890647
_cell_angle_alpha   101.30455609
_cell_angle_beta   99.44371586
_cell_angle_gamma   107.94066595
_symmetry_Int_Tables_number   1
_chemical_formula_structural   SnH4(CCl)2
_chemical_formula_sum   'Sn2 H8 C4 Cl4'
_cell_volume   261.399951569
_cell_formula_units_Z   2
loop_
 _symmetry_equiv_pos_site_id
 _symmetry_equiv_pos_as_xyz
  1  'x, y, z'
loop_
 _atom_site_type_symbol
 _atom_site_label
 _atom_site_symmetry_multiplicity
 _atom_site_fract_x
 _atom_site_fract_y
 _atom_site_fract_z
 _atom_site_occupancy
  Sn  Sn1  1  0.712640  0.719382  0.736797  1
  Sn  Sn2  1  0.144865  0.323905  0.220348  1
  C  C3  1  0.441408  0.578875  0.422292  1
  C  C4  1  0.416178  0.464399  0.534853  1
  C  C5  1  0.099162  0.075756  0.019447  1
  C  C6  1  0.758460  0.967537  0.937711  1
  Cl  Cl7  1  0.683779  0.083882  0.304389  1
  Cl  Cl8  1  0.173777  0.959326  0.652733  1
  Cl  Cl9  1  0.830787  0.568284  0.141396  1
  Cl  Cl10  1  0.026806  0.475045  0.815770  1
  H  H11  1  0.594127  0.850052  0.981247  1
  H  H12  1  0.263505  0.193244  0.975915  1
  H  H13  1  0.173595  0.401023  0.552387  1
  H  H14  1  0.683991  0.642232  0.404754  1
  H  H15  1  0.655956  0.089384  0.902988  1
  H  H16  1  0.201672  0.953920  0.054182  1
  H  H17  1  0.525672  0.329715  0.531652  1
  H  H18  1  0.331949  0.713579  0.425500  1
 
# Source:                            Huan_etal:SciDat(submitted)                                                     
# Class:                             organometallic_polymer_crystal                                                  
# Label:                             SnCl2-based_polymer                                                             
# Structure prediction method used:  minima-hopping                                                                  
# Number of atoms:                    18
# Number of atom types:                4
# Atom types:                        Sn  C Cl  H
# Dielectric constant, electronic:   5.17933E+00
# Dielectric constant, ionic:        3.00418E+00
# Dielectric constant, total:        8.18351E+00
# Band gap at the GGA level (eV):    1.69180E+00
# Band gap at the HSE06 level (eV):  2.56260E+00
# Atomization energy (eV/atom):     -4.39684E+00
# Volume of the unit cell (A^3):     2.61400E+02
