# generated using pymatgen
data_SnH4(CCl)2
_symmetry_space_group_name_H-M   'P 1'
_cell_length_a   4.46781948
_cell_length_b   6.74171854
_cell_length_c   9.79474725
_cell_angle_alpha   98.93351432
_cell_angle_beta   97.37756455
_cell_angle_gamma   108.38986004
_symmetry_Int_Tables_number   1
_chemical_formula_structural   SnH4(CCl)2
_chemical_formula_sum   'Sn2 H8 C4 Cl4'
_cell_volume   271.565642556
_cell_formula_units_Z   2
loop_
 _symmetry_equiv_pos_site_id
 _symmetry_equiv_pos_as_xyz
  1  'x, y, z'
loop_
 _atom_site_type_symbol
 _atom_site_label
 _atom_site_symmetry_multiplicity
 _atom_site_fract_x
 _atom_site_fract_y
 _atom_site_fract_z
 _atom_site_occupancy
  Sn  Sn1  1  0.132449  0.215588  0.272430  1
  Sn  Sn2  1  0.765740  0.743895  0.759117  1
  C  C3  1  0.530421  0.596991  0.529760  1
  C  C4  1  0.367420  0.362384  0.501799  1
  C  C5  1  0.781263  0.927947  0.976098  1
  C  C6  1  0.116324  0.031335  0.055333  1
  Cl  Cl7  1  0.256364  0.002947  0.704139  1
  Cl  Cl8  1  0.641460  0.956668  0.327299  1
  Cl  Cl9  1  0.036576  0.484254  0.820741  1
  Cl  Cl10  1  0.862325  0.475781  0.211235  1
  H  H11  1  0.232896  0.919768  0.082695  1
  H  H12  1  0.664479  0.039402  0.948727  1
  H  H13  1  0.524291  0.270764  0.521617  1
  H  H14  1  0.373432  0.688564  0.510068  1
  H  H15  1  0.268889  0.154466  0.009794  1
  H  H16  1  0.628766  0.804684  0.021562  1
  H  H17  1  0.157915  0.309856  0.550634  1
  H  H18  1  0.739731  0.649555  0.480821  1
 
# Source:                            Huan_etal:SciDat(submitted)                                                     
# Class:                             organometallic_polymer_crystal                                                  
# Label:                             SnCl2-based_polymer                                                             
# Structure prediction method used:  minima-hopping                                                                  
# Number of atoms:                    18
# Number of atom types:                4
# Atom types:                        Sn  C Cl  H
# Dielectric constant, electronic:   4.97050E+00
# Dielectric constant, ionic:        2.69390E+00
# Dielectric constant, total:        7.66440E+00
# Band gap at the GGA level (eV):    1.69740E+00
# Band gap at the HSE06 level (eV):  2.58540E+00
# Atomization energy (eV/atom):     -4.39001E+00
# Volume of the unit cell (A^3):     2.71566E+02
