# generated using pymatgen
data_SnH4(CCl)2
_symmetry_space_group_name_H-M   'P 1'
_cell_length_a   4.48753276
_cell_length_b   6.74463211
_cell_length_c   9.72627280
_cell_angle_alpha   97.90852986
_cell_angle_beta   98.96940061
_cell_angle_gamma   108.95938476
_symmetry_Int_Tables_number   1
_chemical_formula_structural   SnH4(CCl)2
_chemical_formula_sum   'Sn2 H8 C4 Cl4'
_cell_volume   269.366439676
_cell_formula_units_Z   2
loop_
 _symmetry_equiv_pos_site_id
 _symmetry_equiv_pos_as_xyz
  1  'x, y, z'
loop_
 _atom_site_type_symbol
 _atom_site_label
 _atom_site_symmetry_multiplicity
 _atom_site_fract_x
 _atom_site_fract_y
 _atom_site_fract_z
 _atom_site_occupancy
  Sn  Sn1  1  0.567212  0.780996  0.730600  1
  Sn  Sn2  1  0.338248  0.245014  0.236882  1
  C  C3  1  0.395982  0.395259  0.470266  1
  C  C4  1  0.509308  0.630651  0.497151  1
  C  C5  1  0.128301  0.053627  0.007525  1
  C  C6  1  0.776940  0.972271  0.959956  1
  Cl  Cl7  1  0.641473  0.996154  0.298262  1
  Cl  Cl8  1  0.263945  0.029912  0.669287  1
  Cl  Cl9  1  0.840231  0.505410  0.177630  1
  Cl  Cl10  1  0.064930  0.520496  0.789635  1
  H  H11  1  0.649032  0.854234  0.016356  1
  H  H12  1  0.256208  0.171647  0.951114  1
  H  H13  1  0.749120  0.709644  0.479291  1
  H  H14  1  0.156142  0.316269  0.488096  1
  H  H15  1  0.676870  0.097405  0.950315  1
  H  H16  1  0.228377  0.928497  0.017180  1
  H  H17  1  0.338476  0.697919  0.448833  1
  H  H18  1  0.566774  0.327975  0.518601  1
 
# Source:                            Huan_etal:SciDat(submitted)                                                     
# Class:                             organometallic_polymer_crystal                                                  
# Label:                             SnCl2-based_polymer                                                             
# Structure prediction method used:  minima-hopping                                                                  
# Number of atoms:                    18
# Number of atom types:                4
# Atom types:                        Sn  C Cl  H
# Dielectric constant, electronic:   5.73722E+00
# Dielectric constant, ionic:        4.45559E+00
# Dielectric constant, total:        1.01928E+01
# Band gap at the GGA level (eV):    1.36410E+00
# Band gap at the HSE06 level (eV):  2.20790E+00
# Atomization energy (eV/atom):     -4.37776E+00
# Volume of the unit cell (A^3):     2.69366E+02
