# generated using pymatgen
data_SnH8(C2Cl)2
_symmetry_space_group_name_H-M   'P 1'
_cell_length_a   7.25120056
_cell_length_b   7.25593326
_cell_length_c   7.92303757
_cell_angle_alpha   70.33252414
_cell_angle_beta   68.65511278
_cell_angle_gamma   70.35642468
_symmetry_Int_Tables_number   1
_chemical_formula_structural   SnH8(C2Cl)2
_chemical_formula_sum   'Sn2 H16 C8 Cl4'
_cell_volume   354.603988114
_cell_formula_units_Z   2
loop_
 _symmetry_equiv_pos_site_id
 _symmetry_equiv_pos_as_xyz
  1  'x, y, z'
loop_
 _atom_site_type_symbol
 _atom_site_label
 _atom_site_symmetry_multiplicity
 _atom_site_fract_x
 _atom_site_fract_y
 _atom_site_fract_z
 _atom_site_occupancy
  Sn  Sn1  1  0.061966  0.870620  0.862596  1
  Sn  Sn2  1  0.429579  0.282535  0.551695  1
  C  C3  1  0.814395  0.134644  0.933629  1
  C  C4  1  0.164147  0.519359  0.273561  1
  C  C5  1  0.147918  0.481581  0.479621  1
  C  C6  1  0.804551  0.061514  0.276394  1
  C  C7  1  0.686913  0.091350  0.138122  1
  C  C8  1  0.677011  0.018358  0.480874  1
  C  C9  1  0.327557  0.633763  0.140593  1
  C  C10  1  0.343736  0.671636  0.934532  1
  Cl  Cl11  1  0.177376  0.980535  0.516237  1
  Cl  Cl12  1  0.855408  0.640199  0.908799  1
  Cl  Cl13  1  0.313982  0.172731  0.898057  1
  Cl  Cl14  1  0.636228  0.512893  0.505429  1
  H  H15  1  0.553220  0.220619  0.153923  1
  H  H16  1  0.624445  0.960312  0.172938  1
  H  H17  1  0.725370  0.167783  0.837225  1
  H  H18  1  0.887856  0.256869  0.898243  1
  H  H19  1  0.027696  0.405846  0.572707  1
  H  H20  1  0.125985  0.619782  0.518491  1
  H  H21  1  0.191651  0.377361  0.236889  1
  H  H22  1  0.012879  0.606556  0.254663  1
  H  H23  1  0.867087  0.192521  0.241538  1
  H  H24  1  0.938201  0.932192  0.260659  1
  H  H25  1  0.603457  0.896198  0.516301  1
  H  H26  1  0.765994  0.985216  0.577310  1
  H  H27  1  0.478835  0.546536  0.159455  1
  H  H28  1  0.300081  0.775735  0.177303  1
  H  H29  1  0.463894  0.747462  0.841472  1
  H  H30  1  0.365743  0.533467  0.895580  1
 
# Source:                            Huan_etal:SciDat(submitted)                                                     
# Class:                             organometallic_polymer_crystal                                                  
# Label:                             SnCl2-based_polymer                                                             
# Structure prediction method used:  minima-hopping                                                                  
# Number of atoms:                    30
# Number of atom types:                4
# Atom types:                        Sn  C Cl  H
# Dielectric constant, electronic:   3.14240E+00
# Dielectric constant, ionic:        1.12777E+00
# Dielectric constant, total:        4.27016E+00
# Band gap at the GGA level (eV):    3.49790E+00
# Band gap at the HSE06 level (eV):  4.78860E+00
# Atomization energy (eV/atom):     -4.68837E+00
# Volume of the unit cell (A^3):     3.54604E+02
