# generated using pymatgen
data_SnH8(C2Cl)2
_symmetry_space_group_name_H-M   'P 1'
_cell_length_a   4.90316739
_cell_length_b   6.02924414
_cell_length_c   13.43326963
_cell_angle_alpha   82.91211166
_cell_angle_beta   85.06029020
_cell_angle_gamma   68.33839090
_symmetry_Int_Tables_number   1
_chemical_formula_structural   SnH8(C2Cl)2
_chemical_formula_sum   'Sn2 H16 C8 Cl4'
_cell_volume   365.900238722
_cell_formula_units_Z   2
loop_
 _symmetry_equiv_pos_site_id
 _symmetry_equiv_pos_as_xyz
  1  'x, y, z'
loop_
 _atom_site_type_symbol
 _atom_site_label
 _atom_site_symmetry_multiplicity
 _atom_site_fract_x
 _atom_site_fract_y
 _atom_site_fract_z
 _atom_site_occupancy
  Sn  Sn1  1  0.183956  0.019932  0.956163  1
  Sn  Sn2  1  0.147178  0.755521  0.468733  1
  C  C3  1  0.273817  0.097155  0.105228  1
  C  C4  1  0.049933  0.977078  0.677293  1
  C  C5  1  0.911739  0.852817  0.614510  1
  C  C6  1  0.018998  0.886566  0.237403  1
  C  C7  1  0.312230  0.888481  0.187472  1
  C  C8  1  0.057483  0.678000  0.319690  1
  C  C9  1  0.281193  0.798563  0.747565  1
  C  C10  1  0.419353  0.922833  0.810358  1
  Cl  Cl11  1  0.989595  0.693719  0.002904  1
  Cl  Cl12  1  0.703990  0.320700  0.904868  1
  Cl  Cl13  1  0.341656  0.081634  0.421903  1
  Cl  Cl14  1  0.627010  0.454764  0.520152  1
  H  H15  1  0.434990  0.714375  0.158477  1
  H  H16  1  0.445870  0.907407  0.244678  1
  H  H17  1  0.090074  0.259912  0.122417  1
  H  H18  1  0.470576  0.141562  0.089173  1
  H  H19  1  0.148042  0.091519  0.629249  1
  H  H20  1  0.873253  0.099871  0.721907  1
  H  H21  1  0.691699  0.966743  0.591752  1
  H  H22  1  0.906331  0.683148  0.652384  1
  H  H23  1  0.885426  0.867502  0.180205  1
  H  H24  1  0.896148  0.060731  0.266343  1
  H  H25  1  0.860822  0.633481  0.335760  1
  H  H26  1  0.241333  0.515287  0.302548  1
  H  H27  1  0.183077  0.684127  0.795603  1
  H  H28  1  0.457870  0.675777  0.702953  1
  H  H29  1  0.424712  0.092534  0.772498  1
  H  H30  1  0.639417  0.808925  0.833102  1
 
# Source:                            Huan_etal:SciDat(submitted)                                                     
# Class:                             organometallic_polymer_crystal                                                  
# Label:                             SnCl2-based_polymer                                                             
# Structure prediction method used:  minima-hopping                                                                  
# Number of atoms:                    30
# Number of atom types:                4
# Atom types:                        Sn  C Cl  H
# Dielectric constant, electronic:   3.07817E+00
# Dielectric constant, ionic:        1.10556E+00
# Dielectric constant, total:        4.18373E+00
# Band gap at the GGA level (eV):    3.55350E+00
# Band gap at the HSE06 level (eV):  4.83520E+00
# Atomization energy (eV/atom):     -4.67881E+00
# Volume of the unit cell (A^3):     3.65900E+02
