# generated using pymatgen
data_SnH8(C2Cl)2
_symmetry_space_group_name_H-M   'P 1'
_cell_length_a   4.07960827
_cell_length_b   6.03372132
_cell_length_c   13.46014987
_cell_angle_alpha   82.05999934
_cell_angle_beta   89.90074150
_cell_angle_gamma   89.94246512
_symmetry_Int_Tables_number   1
_chemical_formula_structural   SnH8(C2Cl)2
_chemical_formula_sum   'Sn2 H16 C8 Cl4'
_cell_volume   328.147631403
_cell_formula_units_Z   2
loop_
 _symmetry_equiv_pos_site_id
 _symmetry_equiv_pos_as_xyz
  1  'x, y, z'
loop_
 _atom_site_type_symbol
 _atom_site_label
 _atom_site_symmetry_multiplicity
 _atom_site_fract_x
 _atom_site_fract_y
 _atom_site_fract_z
 _atom_site_occupancy
  Sn  Sn1  1  0.080285  0.161128  0.038677  1
  Sn  Sn2  1  0.149648  0.659863  0.538925  1
  C  C3  1  0.148179  0.914479  0.932055  1
  C  C4  1  0.158041  0.501126  0.322623  1
  C  C5  1  0.085050  0.413164  0.432263  1
  C  C6  1  0.158576  0.819798  0.754971  1
  C  C7  1  0.071115  0.001204  0.822627  1
  C  C8  1  0.081680  0.906549  0.645533  1
  C  C9  1  0.071652  0.319666  0.255027  1
  C  C10  1  0.144808  0.407674  0.145402  1
  Cl  Cl11  1  0.626377  0.398571  0.931304  1
  Cl  Cl12  1  0.625627  0.923792  0.146035  1
  Cl  Cl13  1  0.603491  0.422522  0.646335  1
  Cl  Cl14  1  0.604202  0.897123  0.431524  1
  H  H15  1  0.811327  0.044553  0.813493  1
  H  H16  1  0.209738  0.154084  0.797190  1
  H  H17  1  0.990657  0.775073  0.962357  1
  H  H18  1  0.403762  0.864223  0.943506  1
  H  H19  1  0.016529  0.653179  0.297880  1
  H  H20  1  0.416984  0.546245  0.312596  1
  H  H21  1  0.246400  0.275323  0.461863  1
  H  H22  1  0.830904  0.360207  0.444562  1
  H  H23  1  0.019895  0.666948  0.780390  1
  H  H24  1  0.418360  0.776401  0.764129  1
  H  H25  1  0.826134  0.956863  0.634051  1
  H  H26  1  0.239300  0.045919  0.615254  1
  H  H27  1  0.213104  0.167611  0.279769  1
  H  H28  1  0.812711  0.274599  0.265022  1
  H  H29  1  0.399019  0.460575  0.133144  1
  H  H30  1  0.983576  0.545609  0.115794  1
 
# Source:                            Huan_etal:SciDat(submitted)                                                     
# Class:                             organometallic_polymer_crystal                                                  
# Label:                             SnCl2-based_polymer                                                             
# Structure prediction method used:  minima-hopping                                                                  
# Number of atoms:                    30
# Number of atom types:                4
# Atom types:                        Sn  C Cl  H
# Dielectric constant, electronic:   3.70124E+00
# Dielectric constant, ionic:        9.24583E+00
# Dielectric constant, total:        1.29471E+01
# Band gap at the GGA level (eV):    3.22030E+00
# Band gap at the HSE06 level (eV):  4.39230E+00
# Atomization energy (eV/atom):     -4.69792E+00
# Volume of the unit cell (A^3):     3.28148E+02
