# generated using pymatgen
data_SnH8(C2Cl)2
_symmetry_space_group_name_H-M   'P 1'
_cell_length_a   4.06014898
_cell_length_b   6.07059195
_cell_length_c   13.48055961
_cell_angle_alpha   82.06981124
_cell_angle_beta   89.19021855
_cell_angle_gamma   89.85917894
_symmetry_Int_Tables_number   1
_chemical_formula_structural   SnH8(C2Cl)2
_chemical_formula_sum   'Sn2 H16 C8 Cl4'
_cell_volume   329.051832563
_cell_formula_units_Z   2
loop_
 _symmetry_equiv_pos_site_id
 _symmetry_equiv_pos_as_xyz
  1  'x, y, z'
loop_
 _atom_site_type_symbol
 _atom_site_label
 _atom_site_symmetry_multiplicity
 _atom_site_fract_x
 _atom_site_fract_y
 _atom_site_fract_z
 _atom_site_occupancy
  Sn  Sn1  1  0.107586  0.832361  0.962979  1
  Sn  Sn2  1  0.082766  0.338566  0.461053  1
  C  C3  1  0.053510  0.079742  0.069472  1
  C  C4  1  0.102809  0.490364  0.678803  1
  C  C5  1  0.088149  0.586467  0.568147  1
  C  C6  1  0.052355  0.175911  0.246015  1
  C  C7  1  0.131932  0.993633  0.178361  1
  C  C8  1  0.131114  0.090010  0.354913  1
  C  C9  1  0.101003  0.682045  0.744819  1
  C  C10  1  0.088014  0.585572  0.855586  1
  Cl  Cl11  1  0.577420  0.596344  0.069924  1
  Cl  Cl12  1  0.586341  0.068548  0.856982  1
  Cl  Cl13  1  0.606786  0.573688  0.354041  1
  Cl  Cl14  1  0.598694  0.103169  0.567174  1
  H  H15  1  0.988282  0.843892  0.204839  1
  H  H16  1  0.391637  0.946700  0.186119  1
  H  H17  1  0.797731  0.132669  0.059524  1
  H  H18  1  0.214648  0.215933  0.037597  1
  H  H19  1  0.892487  0.380425  0.699882  1
  H  H20  1  0.324711  0.389593  0.694292  1
  H  H21  1  0.299231  0.691729  0.543029  1
  H  H22  1  0.862252  0.680349  0.549880  1
  H  H23  1  0.792623  0.222894  0.238329  1
  H  H24  1  0.196000  0.325623  0.219451  1
  H  H25  1  0.968759  0.954862  0.387173  1
  H  H26  1  0.386456  0.035867  0.364632  1
  H  H27  1  0.321592  0.784111  0.727432  1
  H  H28  1  0.889266  0.790797  0.725622  1
  H  H29  1  0.297217  0.477304  0.877664  1
  H  H30  1  0.860529  0.494610  0.876808  1
 
# Source:                            Huan_etal:SciDat(submitted)                                                     
# Class:                             organometallic_polymer_crystal                                                  
# Label:                             SnCl2-based_polymer                                                             
# Structure prediction method used:  minima-hopping                                                                  
# Number of atoms:                    30
# Number of atom types:                4
# Atom types:                        Sn  C Cl  H
# Dielectric constant, electronic:   3.72680E+00
# Dielectric constant, ionic:        1.92325E+01
# Dielectric constant, total:        2.29593E+01
# Band gap at the GGA level (eV):    3.19080E+00
# Band gap at the HSE06 level (eV):  4.35490E+00
# Atomization energy (eV/atom):     -4.69723E+00
# Volume of the unit cell (A^3):     3.29052E+02
