# generated using pymatgen
data_SnH12(C3Cl)2
_symmetry_space_group_name_H-M   'P 1'
_cell_length_a   4.02343301
_cell_length_b   6.58956720
_cell_length_c   18.44930836
_cell_angle_alpha   82.82527578
_cell_angle_beta   88.01733178
_cell_angle_gamma   72.64448311
_symmetry_Int_Tables_number   1
_chemical_formula_structural   SnH12(C3Cl)2
_chemical_formula_sum   'Sn2 H24 C12 Cl4'
_cell_volume   463.213679964
_cell_formula_units_Z   2
loop_
 _symmetry_equiv_pos_site_id
 _symmetry_equiv_pos_as_xyz
  1  'x, y, z'
loop_
 _atom_site_type_symbol
 _atom_site_label
 _atom_site_symmetry_multiplicity
 _atom_site_fract_x
 _atom_site_fract_y
 _atom_site_fract_z
 _atom_site_occupancy
  Sn  Sn1  1  0.107698  0.281825  0.506173  1
  Sn  Sn2  1  0.082204  0.362740  0.056636  1
  C  C3  1  0.194192  0.154751  0.623971  1
  C  C4  1  0.158609  0.010433  0.194751  1
  C  C5  1  0.092832  0.251181  0.176496  1
  C  C6  1  0.160491  0.235976  0.755678  1
  C  C7  1  0.050239  0.323217  0.675937  1
  C  C8  1  0.030656  0.410092  0.807082  1
  C  C9  1  0.076846  0.942841  0.274725  1
  C  C10  1  0.112083  0.701552  0.288035  1
  C  C11  1  0.030483  0.633880  0.368016  1
  C  C12  1  0.097489  0.393030  0.386309  1
  C  C13  1  0.140695  0.322621  0.886825  1
  C  C14  1  0.995827  0.490618  0.938909  1
  Cl  Cl15  1  0.494868  0.559807  0.532043  1
  Cl  Cl16  1  0.771296  0.005544  0.483870  1
  Cl  Cl17  1  0.695452  0.084891  0.030588  1
  Cl  Cl18  1  0.419054  0.638871  0.079072  1
  H  H19  1  0.142423  0.463211  0.659861  1
  H  H20  1  0.765632  0.381247  0.672653  1
  H  H21  1  0.076901  0.023524  0.631237  1
  H  H22  1  0.477016  0.087310  0.627687  1
  H  H23  1  0.998354  0.954706  0.159867  1
  H  H24  1  0.429497  0.926044  0.182639  1
  H  H25  1  0.292739  0.310031  0.197591  1
  H  H26  1  0.837321  0.344879  0.194396  1
  H  H27  1  0.445786  0.172079  0.759277  1
  H  H28  1  0.058434  0.100558  0.774018  1
  H  H29  1  0.132871  0.545486  0.788803  1
  H  H30  1  0.745374  0.474073  0.803461  1
  H  H31  1  0.250308  0.980497  0.312268  1
  H  H32  1  0.810014  0.034872  0.288132  1
  H  H33  1  0.378917  0.609556  0.274615  1
  H  H34  1  0.938616  0.663863  0.250502  1
  H  H35  1  0.898366  0.333606  0.365174  1
  H  H36  1  0.353442  0.299770  0.368475  1
  H  H37  1  0.759365  0.717852  0.380115  1
  H  H38  1  0.190206  0.690009  0.402893  1
  H  H39  1  0.425303  0.264943  0.890159  1
  H  H40  1  0.049074  0.182331  0.902759  1
  H  H41  1  0.712946  0.557648  0.935158  1
  H  H42  1  0.112459  0.622143  0.931823  1
 
# Source:                            Huan_etal:SciDat(submitted)                                                     
# Class:                             organometallic_polymer_crystal                                                  
# Label:                             SnCl2-based_polymer                                                             
# Structure prediction method used:  minima-hopping                                                                  
# Number of atoms:                    42
# Number of atom types:                4
# Atom types:                        Sn  C Cl  H
# Dielectric constant, electronic:   3.06478E+00
# Dielectric constant, ionic:        7.43090E+00
# Dielectric constant, total:        1.04957E+01
# Band gap at the GGA level (eV):    3.38610E+00
# Band gap at the HSE06 level (eV):  4.58690E+00
# Atomization energy (eV/atom):     -4.81302E+00
# Volume of the unit cell (A^3):     4.63214E+02
