# generated using pymatgen
data_SnH4(CF)2
_symmetry_space_group_name_H-M   'P 1'
_cell_length_a   4.16594533
_cell_length_b   4.47090065
_cell_length_c   9.52378192
_cell_angle_alpha   86.92304271
_cell_angle_beta   84.43833457
_cell_angle_gamma   63.35594092
_symmetry_Int_Tables_number   1
_chemical_formula_structural   SnH4(CF)2
_chemical_formula_sum   'Sn2 H8 C4 F4'
_cell_volume   157.792062796
_cell_formula_units_Z   2
loop_
 _symmetry_equiv_pos_site_id
 _symmetry_equiv_pos_as_xyz
  1  'x, y, z'
loop_
 _atom_site_type_symbol
 _atom_site_label
 _atom_site_symmetry_multiplicity
 _atom_site_fract_x
 _atom_site_fract_y
 _atom_site_fract_z
 _atom_site_occupancy
  Sn  Sn1  1  0.789504  0.230163  0.887377  1
  Sn  Sn2  1  0.075612  0.735631  0.387264  1
  C  C3  1  0.918645  0.143979  0.661763  1
  C  C4  1  0.781303  0.141259  0.114004  1
  C  C5  1  0.083742  0.824581  0.160643  1
  C  C6  1  0.946318  0.821874  0.612872  1
  F  F7  1  0.208574  0.408169  0.891592  1
  F  F8  1  0.538829  0.767291  0.883193  1
  F  F9  1  0.326300  0.198476  0.391492  1
  F  F10  1  0.656482  0.557667  0.382940  1
  H  H11  1  0.156191  0.607266  0.661175  1
  H  H12  1  0.693956  0.805519  0.631336  1
  H  H13  1  0.170956  0.160402  0.643251  1
  H  H14  1  0.708645  0.358595  0.613522  1
  H  H15  1  0.081228  0.604489  0.119225  1
  H  H16  1  0.345696  0.816399  0.131991  1
  H  H17  1  0.783749  0.361341  0.155454  1
  H  H18  1  0.519373  0.149383  0.142620  1
 
# Source:                            Huan_etal:SciDat(submitted)                                                     
# Class:                             organometallic_polymer_crystal                                                  
# Label:                             SnF2-based_polymer                                                              
# Structure prediction method used:  minima-hopping                                                                  
# Number of atoms:                    18
# Number of atom types:                4
# Atom types:                        Sn  C  F  H
# Dielectric constant, electronic:   3.95713E+00
# Dielectric constant, ionic:        5.67638E+00
# Dielectric constant, total:        9.63351E+00
# Band gap at the GGA level (eV):    2.91040E+00
# Band gap at the HSE06 level (eV):  4.18230E+00
# Atomization energy (eV/atom):     -4.80599E+00
# Volume of the unit cell (A^3):     1.57792E+02
