# generated using pymatgen
data_SnH4(CF)2
_symmetry_space_group_name_H-M   'P 1'
_cell_length_a   4.26574504
_cell_length_b   5.85070988
_cell_length_c   7.60322995
_cell_angle_alpha   74.19723834
_cell_angle_beta   73.71246357
_cell_angle_gamma   68.63618745
_symmetry_Int_Tables_number   1
_chemical_formula_structural   SnH4(CF)2
_chemical_formula_sum   'Sn2 H8 C4 F4'
_cell_volume   166.525651903
_cell_formula_units_Z   2
loop_
 _symmetry_equiv_pos_site_id
 _symmetry_equiv_pos_as_xyz
  1  'x, y, z'
loop_
 _atom_site_type_symbol
 _atom_site_label
 _atom_site_symmetry_multiplicity
 _atom_site_fract_x
 _atom_site_fract_y
 _atom_site_fract_z
 _atom_site_occupancy
  Sn  Sn1  1  0.317139  0.042024  0.576117  1
  Sn  Sn2  1  0.564796  0.542024  0.076097  1
  C  C3  1  0.047295  0.355318  0.719963  1
  C  C4  1  0.377468  0.855321  0.219956  1
  C  C5  1  0.500059  0.765329  0.401848  1
  C  C6  1  0.832723  0.265328  0.901830  1
  F  F7  1  0.308820  0.766982  0.832820  1
  F  F8  1  0.591417  0.266956  0.332777  1
  F  F9  1  0.803716  0.965125  0.643130  1
  F  F10  1  0.088086  0.465088  0.143156  1
  H  H11  1  0.631247  0.210290  0.879953  1
  H  H12  1  0.778396  0.710328  0.379995  1
  H  H13  1  0.984738  0.110281  0.989763  1
  H  H14  1  0.415085  0.610262  0.489750  1
  H  H15  1  0.895624  0.504243  0.628350  1
  H  H16  1  0.471815  0.004306  0.128385  1
  H  H17  1  0.245105  0.417103  0.739006  1
  H  H18  1  0.098892  0.916992  0.238964  1
 
# Source:                            Huan_etal:SciDat(submitted)                                                     
# Class:                             organometallic_polymer_crystal                                                  
# Label:                             SnF2-based_polymer                                                              
# Structure prediction method used:  minima-hopping                                                                  
# Number of atoms:                    18
# Number of atom types:                4
# Atom types:                        Sn  C  F  H
# Dielectric constant, electronic:   3.70088E+00
# Dielectric constant, ionic:        4.32490E+00
# Dielectric constant, total:        8.02579E+00
# Band gap at the GGA level (eV):    3.18680E+00
# Band gap at the HSE06 level (eV):  4.40050E+00
# Atomization energy (eV/atom):     -4.82191E+00
# Volume of the unit cell (A^3):     1.66526E+02
