# generated using pymatgen
data_SnH4(CF)2
_symmetry_space_group_name_H-M   'P 1'
_cell_length_a   4.18448137
_cell_length_b   4.33243309
_cell_length_c   9.83622947
_cell_angle_alpha   80.40541266
_cell_angle_beta   89.17376914
_cell_angle_gamma   65.48347895
_symmetry_Int_Tables_number   1
_chemical_formula_structural   SnH4(CF)2
_chemical_formula_sum   'Sn2 H8 C4 F4'
_cell_volume   159.676131676
_cell_formula_units_Z   2
loop_
 _symmetry_equiv_pos_site_id
 _symmetry_equiv_pos_as_xyz
  1  'x, y, z'
loop_
 _atom_site_type_symbol
 _atom_site_label
 _atom_site_symmetry_multiplicity
 _atom_site_fract_x
 _atom_site_fract_y
 _atom_site_fract_z
 _atom_site_occupancy
  Sn  Sn1  1  0.839316  0.358004  0.991740  1
  Sn  Sn2  1  0.189405  0.111900  0.505066  1
  C  C3  1  0.861798  0.382560  0.769731  1
  C  C4  1  0.989396  0.118264  0.205633  1
  C  C5  1  0.039244  0.351629  0.291168  1
  C  C6  1  0.166860  0.087250  0.727077  1
  F  F7  1  0.277134  0.542383  0.993857  1
  F  F8  1  0.627998  0.896647  0.999610  1
  F  F9  1  0.751547  0.927492  0.502829  1
  F  F10  1  0.400711  0.573096  0.497332  1
  H  H11  1  0.418544  0.072875  0.761135  1
  H  H12  1  0.159722  0.841039  0.765638  1
  H  H13  1  0.868886  0.628787  0.731134  1
  H  H14  1  0.610120  0.396878  0.735697  1
  H  H15  1  0.798640  0.577395  0.298882  1
  H  H16  1  0.246194  0.430394  0.257536  1
  H  H17  1  0.782407  0.039543  0.239249  1
  H  H18  1  0.229985  0.892473  0.197929  1
 
# Source:                            Huan_etal:SciDat(submitted)                                                     
# Class:                             organometallic_polymer_crystal                                                  
# Label:                             SnF2-based_polymer                                                              
# Structure prediction method used:  minima-hopping                                                                  
# Number of atoms:                    18
# Number of atom types:                4
# Atom types:                        Sn  C  F  H
# Dielectric constant, electronic:   3.87322E+00
# Dielectric constant, ionic:        6.02409E+00
# Dielectric constant, total:        9.89731E+00
# Band gap at the GGA level (eV):    2.97970E+00
# Band gap at the HSE06 level (eV):  4.21680E+00
# Atomization energy (eV/atom):     -4.81331E+00
# Volume of the unit cell (A^3):     1.59676E+02
