# generated using pymatgen
data_SnH4(CF)2
_symmetry_space_group_name_H-M   'P 1'
_cell_length_a   4.50011222
_cell_length_b   6.13234563
_cell_length_c   6.47341873
_cell_angle_alpha   68.51123429
_cell_angle_beta   70.98339337
_cell_angle_gamma   80.83524769
_symmetry_Int_Tables_number   1
_chemical_formula_structural   SnH4(CF)2
_chemical_formula_sum   'Sn2 H8 C4 F4'
_cell_volume   156.990862074
_cell_formula_units_Z   2
loop_
 _symmetry_equiv_pos_site_id
 _symmetry_equiv_pos_as_xyz
  1  'x, y, z'
loop_
 _atom_site_type_symbol
 _atom_site_label
 _atom_site_symmetry_multiplicity
 _atom_site_fract_x
 _atom_site_fract_y
 _atom_site_fract_z
 _atom_site_occupancy
  Sn  Sn1  1  0.663664  0.493068  0.465738  1
  Sn  Sn2  1  0.971389  0.000517  0.935453  1
  C  C3  1  0.485448  0.704089  0.691697  1
  C  C4  1  0.149669  0.789557  0.709450  1
  C  C5  1  0.655889  0.282847  0.262170  1
  C  C6  1  0.979172  0.210749  0.139012  1
  F  F7  1  0.560769  0.138516  0.792746  1
  F  F8  1  0.083925  0.655647  0.204924  1
  F  F9  1  0.551122  0.837941  0.196187  1
  F  F10  1  0.074307  0.355124  0.608402  1
  H  H11  1  0.122605  0.356383  0.018262  1
  H  H12  1  0.112447  0.094704  0.253124  1
  H  H13  1  0.512437  0.137214  0.382921  1
  H  H14  1  0.522613  0.398905  0.148055  1
  H  H15  1  0.519036  0.596721  0.858713  1
  H  H16  1  0.643855  0.847029  0.611161  1
  H  H17  1  0.116075  0.896938  0.542434  1
  H  H18  1  0.991262  0.646609  0.789974  1
 
# Source:                            Huan_etal:SciDat(submitted)                                                     
# Class:                             organometallic_polymer_crystal                                                  
# Label:                             SnF2-based_polymer                                                              
# Structure prediction method used:  minima-hopping                                                                  
# Number of atoms:                    18
# Number of atom types:                4
# Atom types:                        Sn  C  F  H
# Dielectric constant, electronic:   4.02154E+00
# Dielectric constant, ionic:        8.43268E+00
# Dielectric constant, total:        1.24542E+01
# Band gap at the GGA level (eV):    2.99300E+00
# Band gap at the HSE06 level (eV):  4.18720E+00
# Atomization energy (eV/atom):     -4.80999E+00
# Volume of the unit cell (A^3):     1.56991E+02
