# generated using pymatgen
data_SnH4(CF)2
_symmetry_space_group_name_H-M   'P 1'
_cell_length_a   4.88026267
_cell_length_b   5.95995871
_cell_length_c   5.96111202
_cell_angle_alpha   68.17138952
_cell_angle_beta   80.77791923
_cell_angle_gamma   80.77309101
_symmetry_Int_Tables_number   1
_chemical_formula_structural   SnH4(CF)2
_chemical_formula_sum   'Sn2 H8 C4 F4'
_cell_volume   157.910391109
_cell_formula_units_Z   2
loop_
 _symmetry_equiv_pos_site_id
 _symmetry_equiv_pos_as_xyz
  1  'x, y, z'
loop_
 _atom_site_type_symbol
 _atom_site_label
 _atom_site_symmetry_multiplicity
 _atom_site_fract_x
 _atom_site_fract_y
 _atom_site_fract_z
 _atom_site_occupancy
  Sn  Sn1  1  0.424796  0.348298  0.569854  1
  Sn  Sn2  1  0.924826  0.816858  0.101304  1
  C  C3  1  0.323808  0.615947  0.746287  1
  C  C4  1  0.066325  0.553767  0.922647  1
  C  C5  1  0.566250  0.169632  0.306772  1
  C  C6  1  0.823820  0.993320  0.368893  1
  F  F7  1  0.492095  0.700574  0.210482  1
  F  F8  1  0.715654  0.102660  0.823798  1
  F  F9  1  0.215609  0.070917  0.855792  1
  F  F10  1  0.992051  0.457464  0.453588  1
  H  H11  1  0.999998  0.080442  0.374262  1
  H  H12  1  0.790666  0.843623  0.539352  1
  H  H13  1  0.392289  0.082777  0.295386  1
  H  H14  1  0.600916  0.320031  0.137246  1
  H  H15  1  0.500032  0.621395  0.833288  1
  H  H16  1  0.290519  0.786420  0.596599  1
  H  H17  1  0.892324  0.542311  0.835900  1
  H  H18  1  0.101125  0.384215  0.073020  1
 
# Source:                            Huan_etal:SciDat(submitted)                                                     
# Class:                             organometallic_polymer_crystal                                                  
# Label:                             SnF2-based_polymer                                                              
# Structure prediction method used:  minima-hopping                                                                  
# Number of atoms:                    18
# Number of atom types:                4
# Atom types:                        Sn  C  F  H
# Dielectric constant, electronic:   3.99936E+00
# Dielectric constant, ionic:        7.58290E+00
# Dielectric constant, total:        1.15823E+01
# Band gap at the GGA level (eV):    3.02890E+00
# Band gap at the HSE06 level (eV):  4.20530E+00
# Atomization energy (eV/atom):     -4.81174E+00
# Volume of the unit cell (A^3):     1.57910E+02
