# generated using pymatgen
data_SnH4(CF)2
_symmetry_space_group_name_H-M   'P 1'
_cell_length_a   4.58725630
_cell_length_b   6.14466985
_cell_length_c   6.25380236
_cell_angle_alpha   107.79549064
_cell_angle_beta   96.32869665
_cell_angle_gamma   107.06861548
_symmetry_Int_Tables_number   1
_chemical_formula_structural   SnH4(CF)2
_chemical_formula_sum   'Sn2 H8 C4 F4'
_cell_volume   156.531250483
_cell_formula_units_Z   2
loop_
 _symmetry_equiv_pos_site_id
 _symmetry_equiv_pos_as_xyz
  1  'x, y, z'
loop_
 _atom_site_type_symbol
 _atom_site_label
 _atom_site_symmetry_multiplicity
 _atom_site_fract_x
 _atom_site_fract_y
 _atom_site_fract_z
 _atom_site_occupancy
  Sn  Sn1  1  0.365945  0.532858  0.568544  1
  Sn  Sn2  1  0.141444  0.988899  0.048032  1
  C  C3  1  0.110871  0.720982  0.214927  1
  C  C4  1  0.396502  0.800818  0.401746  1
  C  C5  1  0.405400  0.352525  0.812693  1
  C  C6  1  0.101969  0.169226  0.803935  1
  F  F7  1  0.520744  0.319896  0.272343  1
  F  F8  1  0.943676  0.629213  0.686095  1
  F  F9  1  0.563738  0.892475  0.930568  1
  F  F10  1  0.986656  0.201903  0.344254  1
  H  H11  1  0.925958  0.248263  0.851158  1
  H  H12  1  0.003599  0.022364  0.638938  1
  H  H13  1  0.581433  0.273522  0.765520  1
  H  H14  1  0.503695  0.499412  0.977667  1
  H  H15  1  0.083905  0.556231  0.074766  1
  H  H16  1  0.897567  0.693453  0.277988  1
  H  H17  1  0.423434  0.965553  0.541904  1
  H  H18  1  0.609802  0.828394  0.338680  1
 
# Source:                            Huan_etal:SciDat(submitted)                                                     
# Class:                             organometallic_polymer_crystal                                                  
# Label:                             SnF2-based_polymer                                                              
# Structure prediction method used:  minima-hopping                                                                  
# Number of atoms:                    18
# Number of atom types:                4
# Atom types:                        Sn  C  F  H
# Dielectric constant, electronic:   4.13417E+00
# Dielectric constant, ionic:        1.09668E+01
# Dielectric constant, total:        1.51010E+01
# Band gap at the GGA level (eV):    2.80380E+00
# Band gap at the HSE06 level (eV):  3.95970E+00
# Atomization energy (eV/atom):     -4.80765E+00
# Volume of the unit cell (A^3):     1.56531E+02
