# generated using pymatgen
data_SnH8(C2F)2
_symmetry_space_group_name_H-M   'P 1'
_cell_length_a   4.21406098
_cell_length_b   4.48198545
_cell_length_c   14.01526845
_cell_angle_alpha   90.40987327
_cell_angle_beta   95.43517765
_cell_angle_gamma   113.17028214
_symmetry_Int_Tables_number   1
_chemical_formula_structural   SnH8(C2F)2
_chemical_formula_sum   'Sn2 H16 C8 F4'
_cell_volume   241.979979917
_cell_formula_units_Z   2
loop_
 _symmetry_equiv_pos_site_id
 _symmetry_equiv_pos_as_xyz
  1  'x, y, z'
loop_
 _atom_site_type_symbol
 _atom_site_label
 _atom_site_symmetry_multiplicity
 _atom_site_fract_x
 _atom_site_fract_y
 _atom_site_fract_z
 _atom_site_occupancy
  Sn  Sn1  1  0.008126  0.915577  0.952809  1
  Sn  Sn2  1  0.675362  0.068175  0.467858  1
  C  C3  1  0.939213  0.791985  0.099836  1
  C  C4  1  0.988240  0.110737  0.684606  1
  C  C5  1  0.863722  0.296805  0.609718  1
  C  C6  1  0.786047  0.930722  0.259591  1
  C  C7  1  0.897405  0.053127  0.161076  1
  C  C8  1  0.744261  0.191857  0.320839  1
  C  C9  1  0.695258  0.873049  0.736069  1
  C  C10  1  0.819767  0.686960  0.810953  1
  F  F11  1  0.206301  0.424078  0.958460  1
  F  F12  1  0.552147  0.060765  0.946601  1
  F  F13  1  0.477238  0.559690  0.462193  1
  F  F14  1  0.131338  0.922989  0.474034  1
  H  H15  1  0.141645  0.268893  0.171180  1
  H  H16  1  0.704681  0.131346  0.124630  1
  H  H17  1  0.155445  0.731987  0.127950  1
  H  H18  1  0.702623  0.570487  0.092048  1
  H  H19  1  0.124641  0.981202  0.651721  1
  H  H20  1  0.177604  0.282777  0.738549  1
  H  H21  1  0.072484  0.517020  0.590642  1
  H  H22  1  0.657534  0.361168  0.631569  1
  H  H23  1  0.978770  0.852495  0.296034  1
  H  H24  1  0.541805  0.714958  0.249490  1
  H  H25  1  0.980849  0.413354  0.328629  1
  H  H26  1  0.528021  0.251860  0.292736  1
  H  H27  1  0.558869  0.002587  0.768958  1
  H  H28  1  0.505885  0.701017  0.682126  1
  H  H29  1  0.025951  0.622599  0.789099  1
  H  H30  1  0.610998  0.466749  0.830025  1
 
# Source:                            Huan_etal:SciDat(submitted)                                                     
# Class:                             organometallic_polymer_crystal                                                  
# Label:                             SnF2-based_polymer                                                              
# Structure prediction method used:  minima-hopping                                                                  
# Number of atoms:                    30
# Number of atom types:                4
# Atom types:                        Sn  C  F  H
# Dielectric constant, electronic:   3.18410E+00
# Dielectric constant, ionic:        2.62459E+00
# Dielectric constant, total:        5.80868E+00
# Band gap at the GGA level (eV):    3.93270E+00
# Band gap at the HSE06 level (eV):  5.34500E+00
# Atomization energy (eV/atom):     -4.94203E+00
# Volume of the unit cell (A^3):     2.41980E+02
