# generated using pymatgen
data_SnH12(C3F)2
_symmetry_space_group_name_H-M   'P 1'
_cell_length_a   4.19293886
_cell_length_b   4.48287170
_cell_length_c   18.83914820
_cell_angle_alpha   90.88868309
_cell_angle_beta   93.46242450
_cell_angle_gamma   112.90747776
_symmetry_Int_Tables_number   1
_chemical_formula_structural   SnH12(C3F)2
_chemical_formula_sum   'Sn2 H24 C12 F4'
_cell_volume   325.292712655
_cell_formula_units_Z   2
loop_
 _symmetry_equiv_pos_site_id
 _symmetry_equiv_pos_as_xyz
  1  'x, y, z'
loop_
 _atom_site_type_symbol
 _atom_site_label
 _atom_site_symmetry_multiplicity
 _atom_site_fract_x
 _atom_site_fract_y
 _atom_site_fract_z
 _atom_site_occupancy
  Sn  Sn1  1  0.878863  0.990019  0.473828  1
  Sn  Sn2  1  0.434540  0.825257  0.962415  1
  C  C3  1  0.961435  0.129978  0.365208  1
  C  C4  1  0.176025  0.830041  0.801684  1
  C  C5  1  0.271268  0.621631  0.855413  1
  C  C6  1  0.129832  0.026038  0.243901  1
  C  C7  1  0.009117  0.881376  0.315514  1
  C  C8  1  0.185571  0.786778  0.192512  1
  C  C9  1  0.987032  0.621075  0.734732  1
  C  C10  1  0.869274  0.801148  0.676971  1
  C  C11  1  0.165273  0.024318  0.635246  1
  C  C12  1  0.049685  0.212543  0.579471  1
  C  C13  1  0.305744  0.931893  0.120906  1
  C  C14  1  0.352088  0.683583  0.070910  1
  F  F15  1  0.331608  0.844019  0.476468  1
  F  F16  1  0.680999  0.482721  0.471067  1
  F  F17  1  0.982179  0.973052  0.960817  1
  F  F18  1  0.631694  0.333034  0.963813  1
  H  H19  1  0.200091  0.796157  0.339757  1
  H  H20  1  0.765663  0.667221  0.306682  1
  H  H21  1  0.747193  0.195705  0.346705  1
  H  H22  1  0.197572  0.350503  0.372101  1
  H  H23  1  0.007275  0.935285  0.824386  1
  H  H24  1  0.409702  0.033654  0.788282  1
  H  H25  1  0.474312  0.547653  0.838356  1
  H  H26  1  0.045211  0.403425  0.865149  1
  H  H27  1  0.373277  0.240310  0.253427  1
  H  H28  1  0.939958  0.112431  0.219266  1
  H  H29  1  0.375657  0.700478  0.217084  1
  H  H30  1  0.942139  0.572481  0.183002  1
  H  H31  1  0.153536  0.511469  0.712840  1
  H  H32  1  0.759940  0.420428  0.751890  1
  H  H33  1  0.740436  0.942127  0.701779  1
  H  H34  1  0.675155  0.627459  0.639311  1
  H  H35  1  0.842573  0.281179  0.595852  1
  H  H36  1  0.263671  0.430793  0.565311  1
  H  H37  1  0.293147  0.883353  0.610450  1
  H  H38  1  0.361258  0.197069  0.672844  1
  H  H39  1  0.549601  0.145669  0.129737  1
  H  H40  1  0.114909  0.017851  0.096899  1
  H  H41  1  0.115538  0.463458  0.063927  1
  H  H42  1  0.566141  0.616989  0.089127  1
 
# Source:                            Huan_etal:SciDat(submitted)                                                     
# Class:                             organometallic_polymer_crystal                                                  
# Label:                             SnF2-based_polymer                                                              
# Structure prediction method used:  minima-hopping                                                                  
# Number of atoms:                    42
# Number of atom types:                4
# Atom types:                        Sn  C  F  H
# Dielectric constant, electronic:   3.02096E+00
# Dielectric constant, ionic:        1.90711E+00
# Dielectric constant, total:        4.92807E+00
# Band gap at the GGA level (eV):    4.12670E+00
# Band gap at the HSE06 level (eV):  5.51920E+00
# Atomization energy (eV/atom):     -5.00209E+00
# Volume of the unit cell (A^3):     3.25293E+02
