# generated using pymatgen
data_SnH12(C3F)2
_symmetry_space_group_name_H-M   'P 1'
_cell_length_a   4.24118443
_cell_length_b   4.50524492
_cell_length_c   18.09467595
_cell_angle_alpha   83.01020425
_cell_angle_beta   88.52495827
_cell_angle_gamma   82.12995578
_symmetry_Int_Tables_number   1
_chemical_formula_structural   SnH12(C3F)2
_chemical_formula_sum   'Sn2 H24 C12 F4'
_cell_volume   339.928936313
_cell_formula_units_Z   2
loop_
 _symmetry_equiv_pos_site_id
 _symmetry_equiv_pos_as_xyz
  1  'x, y, z'
loop_
 _atom_site_type_symbol
 _atom_site_label
 _atom_site_symmetry_multiplicity
 _atom_site_fract_x
 _atom_site_fract_y
 _atom_site_fract_z
 _atom_site_occupancy
  Sn  Sn1  1  0.101158  0.231317  0.527185  1
  Sn  Sn2  1  0.464682  0.784841  0.040706  1
  C  C3  1  0.009876  0.452974  0.628448  1
  C  C4  1  0.341862  0.677603  0.218283  1
  C  C5  1  0.587548  0.643825  0.156244  1
  C  C6  1  0.994535  0.062840  0.744133  1
  C  C7  1  0.192251  0.270201  0.694841  1
  C  C8  1  0.195687  0.848326  0.802668  1
  C  C9  1  0.205637  0.003567  0.223473  1
  C  C10  1  0.986498  0.038410  0.291693  1
  C  C11  1  0.166268  0.062390  0.363075  1
  C  C12  1  0.929553  0.080092  0.427536  1
  C  C13  1  0.288726  0.986122  0.871338  1
  C  C14  1  0.484158  0.736945  0.923253  1
  F  F15  1  0.517096  0.970048  0.565356  1
  F  F16  1  0.385663  0.531098  0.476720  1
  F  F17  1  0.389502  0.258491  0.046238  1
  F  F18  1  0.962859  0.876277  0.034066  1
  H  H19  1  0.403516  0.133944  0.675420  1
  H  H20  1  0.279770  0.426716  0.728254  1
  H  H21  1  0.754631  0.505832  0.637196  1
  H  H22  1  0.109304  0.661615  0.610997  1
  H  H23  1  0.149263  0.547315  0.212397  1
  H  H24  1  0.457168  0.584495  0.271453  1
  H  H25  1  0.697710  0.411818  0.154386  1
  H  H26  1  0.772048  0.783867  0.162056  1
  H  H27  1  0.878574  0.928862  0.708922  1
  H  H28  1  0.802404  0.198998  0.771702  1
  H  H29  1  0.066215  0.658781  0.822446  1
  H  H30  1  0.415417  0.750700  0.776211  1
  H  H31  1  0.403555  0.131154  0.226271  1
  H  H32  1  0.080671  0.097338  0.171798  1
  H  H33  1  0.850181  0.846402  0.301435  1
  H  H34  1  0.811778  0.240333  0.281511  1
  H  H35  1  0.729322  0.256188  0.414313  1
  H  H36  1  0.835746  0.869200  0.445503  1
  H  H37  1  0.282000  0.266781  0.354502  1
  H  H38  1  0.351363  0.870133  0.374965  1
  H  H39  1  0.072295  0.082202  0.899286  1
  H  H40  1  0.426978  0.171908  0.854904  1
  H  H41  1  0.734654  0.701169  0.907080  1
  H  H42  1  0.389091  0.523901  0.923660  1
 
# Source:                            Huan_etal:SciDat(submitted)                                                     
# Class:                             organometallic_polymer_crystal                                                  
# Label:                             SnF2-based_polymer                                                              
# Structure prediction method used:  minima-hopping                                                                  
# Number of atoms:                    42
# Number of atom types:                4
# Atom types:                        Sn  C  F  H
# Dielectric constant, electronic:   2.96845E+00
# Dielectric constant, ionic:        1.53245E+00
# Dielectric constant, total:        4.50090E+00
# Band gap at the GGA level (eV):    3.86160E+00
# Band gap at the HSE06 level (eV):  5.16860E+00
# Atomization energy (eV/atom):     -4.98190E+00
# Volume of the unit cell (A^3):     3.39929E+02
