# generated using pymatgen
data_SnH12(C3F)2
_symmetry_space_group_name_H-M   'P 1'
_cell_length_a   4.55562406
_cell_length_b   6.21750293
_cell_length_c   12.85914556
_cell_angle_alpha   81.05186695
_cell_angle_beta   88.26234751
_cell_angle_gamma   81.03382126
_symmetry_Int_Tables_number   1
_chemical_formula_structural   SnH12(C3F)2
_chemical_formula_sum   'Sn2 H24 C12 F4'
_cell_volume   355.393939938
_cell_formula_units_Z   2
loop_
 _symmetry_equiv_pos_site_id
 _symmetry_equiv_pos_as_xyz
  1  'x, y, z'
loop_
 _atom_site_type_symbol
 _atom_site_label
 _atom_site_symmetry_multiplicity
 _atom_site_fract_x
 _atom_site_fract_y
 _atom_site_fract_z
 _atom_site_occupancy
  Sn  Sn1  1  0.279549  0.302676  0.464014  1
  Sn  Sn2  1  0.760662  0.288315  0.983059  1
  C  C3  1  0.354117  0.103490  0.337849  1
  C  C4  1  0.862701  0.524184  0.748124  1
  C  C5  1  0.640727  0.419852  0.822357  1
  C  C6  1  0.151566  0.852074  0.232577  1
  C  C7  1  0.075021  0.024520  0.306707  1
  C  C8  1  0.887868  0.739014  0.214546  1
  C  C9  1  0.920413  0.748192  0.767672  1
  C  C10  1  0.119404  0.842969  0.679399  1
  C  C11  1  0.177123  0.066983  0.698940  1
  C  C12  1  0.399212  0.171269  0.624741  1
  C  C13  1  0.964566  0.566498  0.140461  1
  C  C14  1  0.685622  0.487423  0.109249  1
  F  F15  1  0.246084  0.628847  0.457736  1
  F  F16  1  0.803492  0.334940  0.459829  1
  F  F17  1  0.236676  0.256025  0.987207  1
  F  F18  1  0.794319  0.962115  0.989414  1
  H  H19  1  0.966852  0.949845  0.377024  1
  H  H20  1  0.918428  0.163375  0.268994  1
  H  H21  1  0.511261  0.965303  0.376359  1
  H  H22  1  0.464933  0.188918  0.271835  1
  H  H23  1  0.076180  0.418301  0.752131  1
  H  H24  1  0.785705  0.540075  0.666355  1
  H  H25  1  0.573928  0.275937  0.796871  1
  H  H26  1  0.440616  0.536248  0.832450  1
  H  H27  1  0.332635  0.728227  0.267193  1
  H  H28  1  0.231100  0.930183  0.156538  1
  H  H29  1  0.808294  0.660960  0.290588  1
  H  H30  1  0.706836  0.862844  0.179891  1
  H  H31  1  0.712163  0.861064  0.772605  1
  H  H32  1  0.027155  0.735489  0.844509  1
  H  H33  1  0.012659  0.855669  0.602562  1
  H  H34  1  0.327639  0.730082  0.674467  1
  H  H35  1  0.599376  0.054877  0.614724  1
  H  H36  1  0.465873  0.315248  0.650211  1
  H  H37  1  0.254006  0.051127  0.780721  1
  H  H38  1  0.963660  0.172891  0.694884  1
  H  H39  1  0.121141  0.427693  0.178230  1
  H  H40  1  0.072845  0.641137  0.070162  1
  H  H41  1  0.528398  0.625553  0.070728  1
  H  H42  1  0.574765  0.401886  0.175218  1
 
# Source:                            Huan_etal:SciDat(submitted)                                                     
# Class:                             organometallic_polymer_crystal                                                  
# Label:                             SnF2-based_polymer                                                              
# Structure prediction method used:  minima-hopping                                                                  
# Number of atoms:                    42
# Number of atom types:                4
# Atom types:                        Sn  C  F  H
# Dielectric constant, electronic:   2.84400E+00
# Dielectric constant, ionic:        1.64967E+00
# Dielectric constant, total:        4.49367E+00
# Band gap at the GGA level (eV):    3.75890E+00
# Band gap at the HSE06 level (eV):  5.09590E+00
# Atomization energy (eV/atom):     -4.97229E+00
# Volume of the unit cell (A^3):     3.55394E+02
