# generated using pymatgen
data_H20Pb(C3O)4
_symmetry_space_group_name_H-M   'P 1'
_cell_length_a   3.87535050
_cell_length_b   4.90450288
_cell_length_c   15.44023508
_cell_angle_alpha   98.80924495
_cell_angle_beta   93.03095295
_cell_angle_gamma   92.43123143
_symmetry_Int_Tables_number   1
_chemical_formula_structural   H20Pb(C3O)4
_chemical_formula_sum   'H20 Pb1 C12 O4'
_cell_volume   289.220176059
_cell_formula_units_Z   1
loop_
 _symmetry_equiv_pos_site_id
 _symmetry_equiv_pos_as_xyz
  1  'x, y, z'
loop_
 _atom_site_type_symbol
 _atom_site_label
 _atom_site_symmetry_multiplicity
 _atom_site_fract_x
 _atom_site_fract_y
 _atom_site_fract_z
 _atom_site_occupancy
  C  C1  1  0.498110  0.415915  0.281535  1
  C  C2  1  0.352378  0.446174  0.371747  1
  C  C3  1  0.228781  0.177397  0.402126  1
  C  C4  1  0.129146  0.232382  0.497986  1
  C  C5  1  0.030072  0.971150  0.535862  1
  C  C6  1  0.924064  0.032285  0.630899  1
  C  C7  1  0.828910  0.771444  0.669616  1
  C  C8  1  0.723049  0.832724  0.764664  1
  C  C9  1  0.622973  0.571712  0.802548  1
  C  C10  1  0.523365  0.627330  0.898395  1
  C  C11  1  0.398457  0.359198  0.928968  1
  C  C12  1  0.252699  0.390982  0.019194  1
  H  H13  1  0.554307  0.553623  0.418245  1
  H  H14  1  0.141526  0.587030  0.370573  1
  H  H15  1  0.137039  0.149682  0.671829  1
  H  H16  1  0.704963  0.166872  0.634263  1
  H  H17  1  0.937163  0.946799  0.805866  1
  H  H18  1  0.506167  0.969382  0.768026  1
  H  H19  1  0.744944  0.725989  0.940496  1
  H  H20  1  0.318326  0.774777  0.905315  1
  H  H21  1  0.434475  0.030551  0.395118  1
  H  H22  1  0.346511  0.344147  0.538746  1
  H  H23  1  0.247456  0.835007  0.532534  1
  H  H24  1  0.816318  0.856606  0.494654  1
  H  H25  1  0.047952  0.636804  0.666240  1
  H  H26  1  0.615862  0.654068  0.628710  1
  H  H27  1  0.837073  0.432458  0.797073  1
  H  H28  1  0.405289  0.460363  0.761805  1
  H  H29  1  0.608620  0.217771  0.930282  1
  H  H30  1  0.196118  0.251979  0.882542  1
  H  H31  1  0.007446  0.078390  0.360007  1
  H  H32  1  0.914502  0.371117  0.503493  1
  O  O33  1  0.704157  0.607824  0.265731  1
  O  O34  1  0.413211  0.194103  0.226022  1
  O  O35  1  0.045863  0.200127  0.035320  1
  O  O36  1  0.338329  0.613414  0.074402  1
  Pb  Pb37  1  0.875809  0.902986  0.150389  1
 
# Source:                            Huan_etal:SciDat(submitted)                                                     
# Class:                             organometallic_polymer_crystal                                                  
# Label:                             Pb-based_polymer                                                                
# Structure prediction method used:  minima-hopping                                                                  
# Number of atoms:                    37
# Number of atom types:                4
# Atom types:                         C  H  O Pb
# Dielectric constant, electronic:   3.04217E+00
# Dielectric constant, ionic:        1.00359E+01
# Dielectric constant, total:        1.30780E+01
# Band gap at the GGA level (eV):    3.72720E+00
# Band gap at the HSE06 level (eV):  5.08340E+00
# Atomization energy (eV/atom):     -5.43717E+00
# Volume of the unit cell (A^3):     2.89220E+02
