# generated using pymatgen
data_H20Pb(C3O)4
_symmetry_space_group_name_H-M   'P 1'
_cell_length_a   3.77921546
_cell_length_b   4.97554797
_cell_length_c   15.36800150
_cell_angle_alpha   97.94810753
_cell_angle_beta   94.64678299
_cell_angle_gamma   92.12327819
_symmetry_Int_Tables_number   1
_chemical_formula_structural   H20Pb(C3O)4
_chemical_formula_sum   'H20 Pb1 C12 O4'
_cell_volume   284.917114096
_cell_formula_units_Z   1
loop_
 _symmetry_equiv_pos_site_id
 _symmetry_equiv_pos_as_xyz
  1  'x, y, z'
loop_
 _atom_site_type_symbol
 _atom_site_label
 _atom_site_symmetry_multiplicity
 _atom_site_fract_x
 _atom_site_fract_y
 _atom_site_fract_z
 _atom_site_occupancy
  C  C1  1  0.454272  0.455928  0.282330  1
  C  C2  1  0.291050  0.457761  0.370039  1
  C  C3  1  0.187284  0.186169  0.399410  1
  C  C4  1  0.093134  0.232504  0.495708  1
  C  C5  1  0.004235  0.971884  0.533648  1
  C  C6  1  0.911457  0.025151  0.629650  1
  C  C7  1  0.825523  0.764121  0.667992  1
  C  C8  1  0.736553  0.816038  0.764283  1
  C  C9  1  0.641491  0.555090  0.801630  1
  C  C10  1  0.557978  0.606816  0.898405  1
  C  C11  1  0.430817  0.346243  0.931825  1
  C  C12  1  0.300022  0.391723  0.023553  1
  H  H13  1  0.488939  0.568783  0.419305  1
  H  H14  1  0.066082  0.589672  0.368702  1
  H  H15  1  0.134688  0.139145  0.670275  1
  H  H16  1  0.685869  0.156847  0.634352  1
  H  H17  1  0.963422  0.924252  0.805006  1
  H  H18  1  0.515593  0.952060  0.769805  1
  H  H19  1  0.792612  0.700306  0.939705  1
  H  H20  1  0.352563  0.755782  0.906088  1
  H  H21  1  0.406273  0.049731  0.392357  1
  H  H22  1  0.316832  0.343908  0.536921  1
  H  H23  1  0.228954  0.839599  0.529393  1
  H  H24  1  0.781073  0.859253  0.492797  1
  H  H25  1  0.050366  0.631871  0.662652  1
  H  H26  1  0.600933  0.650971  0.627649  1
  H  H27  1  0.859412  0.416869  0.794641  1
  H  H28  1  0.411446  0.449212  0.761442  1
  H  H29  1  0.641747  0.201992  0.933722  1
  H  H30  1  0.212251  0.242458  0.887267  1
  H  H31  1  0.960087  0.084545  0.357154  1
  H  H32  1  0.869356  0.365713  0.501337  1
  O  O33  1  0.559163  0.689107  0.265666  1
  O  O34  1  0.486050  0.232450  0.231631  1
  O  O35  1  0.098523  0.208584  0.046292  1
  O  O36  1  0.391724  0.621517  0.072344  1
  Pb  Pb37  1  0.972115  0.896224  0.160363  1
 
# Source:                            Huan_etal:SciDat(submitted)                                                     
# Class:                             organometallic_polymer_crystal                                                  
# Label:                             Pb-based_polymer                                                                
# Structure prediction method used:  minima-hopping                                                                  
# Number of atoms:                    37
# Number of atom types:                4
# Atom types:                         C  H  O Pb
# Dielectric constant, electronic:   3.09202E+00
# Dielectric constant, ionic:        5.40470E+00
# Dielectric constant, total:        8.49672E+00
# Band gap at the GGA level (eV):    3.71750E+00
# Band gap at the HSE06 level (eV):  5.21910E+00
# Atomization energy (eV/atom):     -5.43306E+00
# Volume of the unit cell (A^3):     2.84917E+02
