# generated using pymatgen
data_H20Pb(C3O)4
_symmetry_space_group_name_H-M   'P 1'
_cell_length_a   3.69453312
_cell_length_b   5.04696618
_cell_length_c   15.20558164
_cell_angle_alpha   97.28430838
_cell_angle_beta   96.75028429
_cell_angle_gamma   90.72468015
_symmetry_Int_Tables_number   1
_chemical_formula_structural   H20Pb(C3O)4
_chemical_formula_sum   'H20 Pb1 C12 O4'
_cell_volume   279.178949468
_cell_formula_units_Z   1
loop_
 _symmetry_equiv_pos_site_id
 _symmetry_equiv_pos_as_xyz
  1  'x, y, z'
loop_
 _atom_site_type_symbol
 _atom_site_label
 _atom_site_symmetry_multiplicity
 _atom_site_fract_x
 _atom_site_fract_y
 _atom_site_fract_z
 _atom_site_occupancy
  C  C1  1  0.399988  0.470009  0.278883  1
  C  C2  1  0.252361  0.476976  0.368724  1
  C  C3  1  0.156009  0.209150  0.398835  1
  C  C4  1  0.080058  0.248908  0.496874  1
  C  C5  1  0.993928  0.989345  0.533693  1
  C  C6  1  0.918590  0.034213  0.631507  1
  C  C7  1  0.836172  0.774467  0.668934  1
  C  C8  1  0.760849  0.819408  0.766751  1
  C  C9  1  0.674337  0.559918  0.803567  1
  C  C10  1  0.598344  0.599698  0.901605  1
  C  C11  1  0.502666  0.331781  0.931728  1
  C  C12  1  0.355105  0.338010  0.021550  1
  H  H13  1  0.465726  0.581505  0.417444  1
  H  H14  1  0.023060  0.611753  0.368383  1
  H  H15  1  0.154653  0.138246  0.672526  1
  H  H16  1  0.690897  0.169085  0.638104  1
  H  H17  1  0.997376  0.921302  0.808088  1
  H  H18  1  0.534547  0.955413  0.773032  1
  H  H19  1  0.836790  0.694794  0.944005  1
  H  H20  1  0.375149  0.736713  0.910249  1
  H  H21  1  0.378936  0.071883  0.390179  1
  H  H22  1  0.317140  0.349992  0.538388  1
  H  H23  1  0.220447  0.853523  0.527411  1
  H  H24  1  0.757547  0.887278  0.492356  1
  H  H25  1  0.063820  0.639563  0.662336  1
  H  H26  1  0.600078  0.670450  0.627927  1
  H  H27  1  0.899540  0.423257  0.795984  1
  H  H28  1  0.437170  0.458984  0.762048  1
  H  H29  1  0.732237  0.197224  0.931970  1
  H  H30  1  0.289413  0.227070  0.883006  1
  H  H31  1  0.917475  0.114203  0.356429  1
  H  H32  1  0.854677  0.385406  0.504462  1
  O  O33  1  0.482946  0.699429  0.257477  1
  O  O34  1  0.442610  0.246067  0.232389  1
  O  O35  1  0.276146  0.107830  0.043167  1
  O  O36  1  0.307940  0.561247  0.067867  1
  Pb  Pb37  1  0.870892  0.905119  0.149803  1
 
# Source:                            Huan_etal:SciDat(submitted)                                                     
# Class:                             organometallic_polymer_crystal                                                  
# Label:                             Pb-based_polymer                                                                
# Structure prediction method used:  minima-hopping                                                                  
# Number of atoms:                    37
# Number of atom types:                4
# Atom types:                         C  H  O Pb
# Dielectric constant, electronic:   3.17352E+00
# Dielectric constant, ionic:        9.79066E+00
# Dielectric constant, total:        1.29642E+01
# Band gap at the GGA level (eV):    3.04230E+00
# Band gap at the HSE06 level (eV):  4.56060E+00
# Atomization energy (eV/atom):     -5.42731E+00
# Volume of the unit cell (A^3):     2.79179E+02
