# generated using pymatgen
data_H20Pb(C3O)4
_symmetry_space_group_name_H-M   'P 1'
_cell_length_a   3.73262650
_cell_length_b   5.48139866
_cell_length_c   14.38307089
_cell_angle_alpha   93.96266619
_cell_angle_beta   96.70904998
_cell_angle_gamma   93.51075371
_symmetry_Int_Tables_number   1
_chemical_formula_structural   H20Pb(C3O)4
_chemical_formula_sum   'H20 Pb1 C12 O4'
_cell_volume   290.849682701
_cell_formula_units_Z   1
loop_
 _symmetry_equiv_pos_site_id
 _symmetry_equiv_pos_as_xyz
  1  'x, y, z'
loop_
 _atom_site_type_symbol
 _atom_site_label
 _atom_site_symmetry_multiplicity
 _atom_site_fract_x
 _atom_site_fract_y
 _atom_site_fract_z
 _atom_site_occupancy
  C  C1  1  0.463784  0.424279  0.255444  1
  C  C2  1  0.383125  0.491655  0.353633  1
  C  C3  1  0.231246  0.256681  0.392447  1
  C  C4  1  0.170886  0.277784  0.495869  1
  C  C5  1  0.052352  0.024941  0.526593  1
  C  C6  1  0.976424  0.029108  0.629036  1
  C  C7  1  0.870891  0.774097  0.659083  1
  C  C8  1  0.786771  0.778353  0.760842  1
  C  C9  1  0.693998  0.522500  0.792883  1
  C  C10  1  0.609273  0.544656  0.894896  1
  C  C11  1  0.584845  0.307239  0.942906  1
  C  C12  1  0.797970  0.285561  0.021735  1
  H  H13  1  0.632866  0.570210  0.395327  1
  H  H14  1  0.197447  0.638978  0.351398  1
  H  H15  1  0.215961  0.108406  0.675164  1
  H  H16  1  0.761352  0.151403  0.639905  1
  H  H17  1  0.019369  0.865964  0.807850  1
  H  H18  1  0.563243  0.895038  0.770100  1
  H  H19  1  0.822179  0.666584  0.935835  1
  H  H20  1  0.355664  0.632665  0.899019  1
  H  H21  1  0.414325  0.111704  0.381112  1
  H  H22  1  0.419373  0.350467  0.539803  1
  H  H23  1  0.262474  0.898219  0.515289  1
  H  H24  1  0.810644  0.949448  0.480282  1
  H  H25  1  0.089583  0.653332  0.649958  1
  H  H26  1  0.635277  0.692455  0.611986  1
  H  H27  1  0.921647  0.407681  0.786977  1
  H  H28  1  0.464307  0.431278  0.746250  1
  H  H29  1  0.007555  0.419499  0.056263  1
  H  H30  1  0.377920  0.165860  0.912657  1
  H  H31  1  0.977683  0.189966  0.349943  1
  H  H32  1  0.966905  0.408048  0.507994  1
  O  O33  1  0.793889  0.818582  0.256223  1
  O  O34  1  0.342337  0.230078  0.209681  1
  O  O35  1  0.219838  0.761764  0.068062  1
  O  O36  1  0.707537  0.556342  0.214414  1
  Pb  Pb37  1  0.747840  0.953634  0.107070  1
 
# Source:                            Huan_etal:SciDat(submitted)                                                     
# Class:                             organometallic_polymer_crystal                                                  
# Label:                             Pb-based_polymer                                                                
# Structure prediction method used:  minima-hopping                                                                  
# Number of atoms:                    37
# Number of atom types:                4
# Atom types:                         C  H  O Pb
# Dielectric constant, electronic:   3.59594E+00
# Dielectric constant, ionic:        1.39958E+00
# Dielectric constant, total:        4.99553E+00
# Band gap at the GGA level (eV):    1.02690E+00
# Band gap at the HSE06 level (eV):  2.08130E+00
# Atomization energy (eV/atom):     -5.24467E+00
# Volume of the unit cell (A^3):     2.90850E+02
