# generated using pymatgen
data_H12Pb(C2O)4
_symmetry_space_group_name_H-M   'P 1'
_cell_length_a   3.81551382
_cell_length_b   4.22567243
_cell_length_c   13.02166723
_cell_angle_alpha   91.51124227
_cell_angle_beta   92.02042484
_cell_angle_gamma   100.78001242
_symmetry_Int_Tables_number   1
_chemical_formula_structural   H12Pb(C2O)4
_chemical_formula_sum   'H12 Pb1 C8 O4'
_cell_volume   206.00025336
_cell_formula_units_Z   1
loop_
 _symmetry_equiv_pos_site_id
 _symmetry_equiv_pos_as_xyz
  1  'x, y, z'
loop_
 _atom_site_type_symbol
 _atom_site_label
 _atom_site_symmetry_multiplicity
 _atom_site_fract_x
 _atom_site_fract_y
 _atom_site_fract_z
 _atom_site_occupancy
  C  C1  1  0.410265  0.537042  0.652423  1
  C  C2  1  0.300746  0.334015  0.555148  1
  C  C3  1  0.199002  0.531113  0.464848  1
  C  C4  1  0.061705  0.312854  0.370491  1
  C  C5  1  0.954085  0.498795  0.278779  1
  C  C6  1  0.815074  0.280313  0.184592  1
  C  C7  1  0.713602  0.477385  0.094270  1
  C  C8  1  0.598586  0.274150  0.997321  1
  H  H9  1  0.525007  0.219965  0.535303  1
  H  H10  1  0.079052  0.141456  0.571342  1
  H  H11  1  0.019265  0.146068  0.161005  1
  H  H12  1  0.582871  0.101233  0.204383  1
  H  H13  1  0.430661  0.711282  0.445346  1
  H  H14  1  0.266304  0.177006  0.347868  1
  H  H15  1  0.184510  0.678928  0.257717  1
  H  H16  1  0.750311  0.635419  0.301528  1
  H  H17  1  0.936506  0.667918  0.077456  1
  H  H18  1  0.491872  0.594333  0.114515  1
  H  H19  1  0.993644  0.664212  0.488333  1
  H  H20  1  0.831572  0.132054  0.391348  1
  O  O21  1  0.259759  0.445454  0.737505  1
  O  O22  1  0.641839  0.795516  0.649664  1
  O  O23  1  0.743761  0.365210  0.911412  1
  O  O24  1  0.366805  0.016220  0.001003  1
  Pb  Pb25  1  0.006166  0.906092  0.824922  1
 
# Source:                            Huan_etal:SciDat(submitted)                                                     
# Class:                             organometallic_polymer_crystal                                                  
# Label:                             Pb-based_polymer                                                                
# Structure prediction method used:  minima-hopping                                                                  
# Number of atoms:                    25
# Number of atom types:                4
# Atom types:                         C  H  O Pb
# Dielectric constant, electronic:   3.23424E+00
# Dielectric constant, ionic:        4.58106E+00
# Dielectric constant, total:        7.81530E+00
# Band gap at the GGA level (eV):    2.68730E+00
# Band gap at the HSE06 level (eV):  3.78260E+00
# Atomization energy (eV/atom):     -5.57983E+00
# Volume of the unit cell (A^3):     2.06000E+02
