# generated using pymatgen
data_H12Pb(C2O)4
_symmetry_space_group_name_H-M   'P 1'
_cell_length_a   3.81438834
_cell_length_b   4.21943797
_cell_length_c   13.01162419
_cell_angle_alpha   91.46529296
_cell_angle_beta   91.93737857
_cell_angle_gamma   100.57265185
_symmetry_Int_Tables_number   1
_chemical_formula_structural   H12Pb(C2O)4
_chemical_formula_sum   'H12 Pb1 C8 O4'
_cell_volume   205.63599893
_cell_formula_units_Z   1
loop_
 _symmetry_equiv_pos_site_id
 _symmetry_equiv_pos_as_xyz
  1  'x, y, z'
loop_
 _atom_site_type_symbol
 _atom_site_label
 _atom_site_symmetry_multiplicity
 _atom_site_fract_x
 _atom_site_fract_y
 _atom_site_fract_z
 _atom_site_occupancy
  C  C1  1  0.405193  0.536225  0.653062  1
  C  C2  1  0.293610  0.333350  0.555910  1
  C  C3  1  0.190022  0.530850  0.465721  1
  C  C4  1  0.051384  0.312659  0.371541  1
  C  C5  1  0.941626  0.498889  0.279940  1
  C  C6  1  0.803244  0.280572  0.185766  1
  C  C7  1  0.699650  0.477826  0.095514  1
  C  C8  1  0.588866  0.274669  0.998375  1
  H  H9  1  0.517323  0.218403  0.535552  1
  H  H10  1  0.072566  0.141288  0.572611  1
  H  H11  1  0.008340  0.146857  0.161905  1
  H  H12  1  0.572344  0.100706  0.205740  1
  H  H13  1  0.420974  0.710628  0.445733  1
  H  H14  1  0.255747  0.176323  0.348467  1
  H  H15  1  0.170765  0.679560  0.258630  1
  H  H16  1  0.737142  0.635130  0.302984  1
  H  H17  1  0.920533  0.670112  0.078861  1
  H  H18  1  0.475582  0.592423  0.115766  1
  H  H19  1  0.985085  0.664648  0.489646  1
  H  H20  1  0.822195  0.132061  0.392863  1
  O  O21  1  0.256766  0.444913  0.738597  1
  O  O22  1  0.636699  0.794131  0.649808  1
  O  O23  1  0.738179  0.365645  0.912937  1
  O  O24  1  0.357196  0.016824  0.001569  1
  Pb  Pb25  1  0.997007  0.905227  0.825710  1
 
# Source:                            Huan_etal:SciDat(submitted)                                                     
# Class:                             organometallic_polymer_crystal                                                  
# Label:                             Pb-based_polymer                                                                
# Structure prediction method used:  minima-hopping                                                                  
# Number of atoms:                    25
# Number of atom types:                4
# Atom types:                         C  H  O Pb
# Dielectric constant, electronic:   3.23972E+00
# Dielectric constant, ionic:        4.54659E+00
# Dielectric constant, total:        7.78632E+00
# Band gap at the GGA level (eV):    2.67730E+00
# Band gap at the HSE06 level (eV):  3.77250E+00
# Atomization energy (eV/atom):     -5.57947E+00
# Volume of the unit cell (A^3):     2.05636E+02
