# generated using pymatgen
data_H12Pb(C2O)4
_symmetry_space_group_name_H-M   'P 1'
_cell_length_a   3.81654510
_cell_length_b   4.22695321
_cell_length_c   13.01499758
_cell_angle_alpha   91.46975844
_cell_angle_beta   91.99277788
_cell_angle_gamma   100.81222996
_symmetry_Int_Tables_number   1
_chemical_formula_structural   H12Pb(C2O)4
_chemical_formula_sum   'H12 Pb1 C8 O4'
_cell_volume   205.999726189
_cell_formula_units_Z   1
loop_
 _symmetry_equiv_pos_site_id
 _symmetry_equiv_pos_as_xyz
  1  'x, y, z'
loop_
 _atom_site_type_symbol
 _atom_site_label
 _atom_site_symmetry_multiplicity
 _atom_site_fract_x
 _atom_site_fract_y
 _atom_site_fract_z
 _atom_site_occupancy
  C  C1  1  0.405186  0.524511  0.654522  1
  C  C2  1  0.296978  0.321201  0.557238  1
  C  C3  1  0.194788  0.517917  0.466843  1
  C  C4  1  0.056830  0.299492  0.372588  1
  C  C5  1  0.949589  0.485311  0.280738  1
  C  C6  1  0.809640  0.266828  0.186643  1
  C  C7  1  0.708200  0.463862  0.096258  1
  C  C8  1  0.592991  0.260662  0.999332  1
  H  H9  1  0.521947  0.208198  0.537504  1
  H  H10  1  0.075831  0.128046  0.573453  1
  H  H11  1  0.013232  0.132238  0.162960  1
  H  H12  1  0.577290  0.088100  0.206621  1
  H  H13  1  0.426312  0.698037  0.447142  1
  H  H14  1  0.260869  0.163198  0.349970  1
  H  H15  1  0.180366  0.664856  0.259478  1
  H  H16  1  0.746533  0.622508  0.303513  1
  H  H17  1  0.931103  0.654301  0.079311  1
  H  H18  1  0.486567  0.580747  0.116506  1
  H  H19  1  0.989701  0.651043  0.490400  1
  H  H20  1  0.826427  0.119183  0.393637  1
  O  O21  1  0.253560  0.432922  0.739514  1
  O  O22  1  0.636604  0.783121  0.651795  1
  O  O23  1  0.737807  0.351858  0.913313  1
  O  O24  1  0.361272  0.002631  0.003161  1
  Pb  Pb25  1  0.001187  0.893279  0.826978  1
 
# Source:                            Huan_etal:SciDat(submitted)                                                     
# Class:                             organometallic_polymer_crystal                                                  
# Label:                             Pb-based_polymer                                                                
# Structure prediction method used:  minima-hopping                                                                  
# Number of atoms:                    25
# Number of atom types:                4
# Atom types:                         C  H  O Pb
# Dielectric constant, electronic:   3.23389E+00
# Dielectric constant, ionic:        4.56397E+00
# Dielectric constant, total:        7.79786E+00
# Band gap at the GGA level (eV):    2.68980E+00
# Band gap at the HSE06 level (eV):  3.78370E+00
# Atomization energy (eV/atom):     -5.57985E+00
# Volume of the unit cell (A^3):     2.06000E+02
