# generated using pymatgen
data_H2C
_symmetry_space_group_name_H-M   'P 1'
_cell_length_a   9.11122406
_cell_length_b   5.08224000
_cell_length_c   9.60448237
_cell_angle_alpha   90.00000000
_cell_angle_beta   113.45129579
_cell_angle_gamma   90.00000000
_symmetry_Int_Tables_number   1
_chemical_formula_structural   H2C
_chemical_formula_sum   'H40 C20'
_cell_volume   408.003586537
_cell_formula_units_Z   20
loop_
 _symmetry_equiv_pos_site_id
 _symmetry_equiv_pos_as_xyz
  1  'x, y, z'
loop_
 _atom_site_type_symbol
 _atom_site_label
 _atom_site_symmetry_multiplicity
 _atom_site_fract_x
 _atom_site_fract_y
 _atom_site_fract_z
 _atom_site_occupancy
  C  C1  1  0.358997  0.135720  0.155871  1
  C  C2  1  0.641003  0.864280  0.844129  1
  C  C3  1  0.641003  0.635720  0.344129  1
  C  C4  1  0.358997  0.364280  0.655871  1
  C  C5  1  0.332151  0.136360  0.304758  1
  C  C6  1  0.667849  0.863640  0.695242  1
  C  C7  1  0.667849  0.636360  0.195242  1
  C  C8  1  0.332151  0.363640  0.804758  1
  C  C9  1  0.157627  0.043105  0.253317  1
  C  C10  1  0.842373  0.956895  0.746683  1
  C  C11  1  0.842373  0.543105  0.246683  1
  C  C12  1  0.157627  0.456895  0.753317  1
  C  C13  1  0.148354  0.813618  0.144138  1
  C  C14  1  0.851646  0.186382  0.855862  1
  C  C15  1  0.851646  0.313618  0.355862  1
  C  C16  1  0.148354  0.686382  0.644138  1
  C  C17  1  0.257801  0.900287  0.062013  1
  C  C18  1  0.742199  0.099713  0.937987  1
  C  C19  1  0.742199  0.400287  0.437987  1
  C  C20  1  0.257801  0.599713  0.562013  1
  H  H21  1  0.485130  0.120442  0.174840  1
  H  H22  1  0.514870  0.879558  0.825160  1
  H  H23  1  0.514870  0.620442  0.325160  1
  H  H24  1  0.485130  0.379558  0.674840  1
  H  H25  1  0.314268  0.320296  0.095102  1
  H  H26  1  0.685732  0.679704  0.904898  1
  H  H27  1  0.685732  0.820296  0.404898  1
  H  H28  1  0.314268  0.179704  0.595102  1
  H  H29  1  0.355098  0.328044  0.360792  1
  H  H30  1  0.644902  0.671956  0.639208  1
  H  H31  1  0.644902  0.828044  0.139208  1
  H  H32  1  0.355098  0.171956  0.860792  1
  H  H33  1  0.411541  0.993615  0.384990  1
  H  H34  1  0.588459  0.006385  0.615010  1
  H  H35  1  0.588459  0.493615  0.115010  1
  H  H36  1  0.411541  0.506385  0.884990  1
  H  H37  1  0.125523  0.985031  0.347058  1
  H  H38  1  0.874477  0.014969  0.652942  1
  H  H39  1  0.874477  0.485031  0.152942  1
  H  H40  1  0.125523  0.514969  0.847058  1
  H  H41  1  0.076543  0.202201  0.191667  1
  H  H42  1  0.923457  0.797799  0.808333  1
  H  H43  1  0.923457  0.702201  0.308333  1
  H  H44  1  0.076543  0.297799  0.691667  1
  H  H45  1  0.026201  0.768923  0.064978  1
  H  H46  1  0.973799  0.231077  0.935022  1
  H  H47  1  0.973799  0.268923  0.435022  1
  H  H48  1  0.026201  0.731077  0.564978  1
  H  H49  1  0.195738  0.635013  0.210545  1
  H  H50  1  0.804262  0.364987  0.789455  1
  H  H51  1  0.804262  0.135013  0.289455  1
  H  H52  1  0.195738  0.864987  0.710545  1
  H  H53  1  0.186305  0.959770  0.945187  1
  H  H54  1  0.813695  0.040230  0.054813  1
  H  H55  1  0.813695  0.459770  0.554813  1
  H  H56  1  0.186305  0.540230  0.445187  1
  H  H57  1  0.334512  0.738885  0.056551  1
  H  H58  1  0.665488  0.261115  0.943449  1
  H  H59  1  0.665488  0.238885  0.443449  1
  H  H60  1  0.334512  0.761115  0.556551  1
 
# Source:                            Grazulis_etal:NucleicAcidsRes.40.D420(2012)                                     
# Class:                             organic_molec_crystal                                                           
# Label:                             COD-1504357                                                                     
# Structure prediction method used:  NA                                                                              
# Number of atoms:                    60
# Number of atom types:                2
# Atom types:                         C  H
# Dielectric constant, electronic:   2.61894E+00
# Dielectric constant, ionic:        2.75630E-02
# Dielectric constant, total:        2.64651E+00
# Band gap at the GGA level (eV):    7.00700E+00
# Band gap at the HSE06 level (eV):  8.51390E+00
# Atomization energy (eV/atom):     -5.13018E+00
# Volume of the unit cell (A^3):     4.08004E+02
