# generated using pymatgen
data_H17C16
_symmetry_space_group_name_H-M   'P 1'
_cell_length_a   5.90605344
_cell_length_b   8.73208963
_cell_length_c   10.27621029
_cell_angle_alpha   97.93598275
_cell_angle_beta   97.22612307
_cell_angle_gamma   97.62562131
_symmetry_Int_Tables_number   1
_chemical_formula_structural   H17C16
_chemical_formula_sum   'H34 C32'
_cell_volume   514.612977369
_cell_formula_units_Z   2
loop_
 _symmetry_equiv_pos_site_id
 _symmetry_equiv_pos_as_xyz
  1  'x, y, z'
loop_
 _atom_site_type_symbol
 _atom_site_label
 _atom_site_symmetry_multiplicity
 _atom_site_fract_x
 _atom_site_fract_y
 _atom_site_fract_z
 _atom_site_occupancy
  C  C1  1  0.050064  0.312839  0.196037  1
  C  C2  1  0.949936  0.687161  0.803963  1
  C  C3  1  0.001440  0.205408  0.058907  1
  C  C4  1  0.998560  0.794592  0.941093  1
  C  C5  1  0.243540  0.220725  0.009874  1
  C  C6  1  0.756460  0.779275  0.990126  1
  C  C7  1  0.400451  0.333719  0.125540  1
  C  C8  1  0.599549  0.666281  0.874460  1
  C  C9  1  0.333205  0.499907  0.124120  1
  C  C10  1  0.666795  0.500093  0.875880  1
  C  C11  1  0.093075  0.485902  0.175004  1
  C  C12  1  0.906925  0.514098  0.824996  1
  C  C13  1  0.299877  0.285998  0.250947  1
  C  C14  1  0.700123  0.714002  0.749053  1
  C  C15  1  0.316209  0.119030  0.277800  1
  C  C16  1  0.683791  0.880970  0.722200  1
  C  C17  1  0.510049  0.047377  0.255477  1
  C  C18  1  0.489951  0.952623  0.744523  1
  C  C19  1  0.538741  0.905559  0.299397  1
  C  C20  1  0.461259  0.094441  0.700603  1
  C  C21  1  0.372140  0.831385  0.364378  1
  C  C22  1  0.627860  0.168615  0.635622  1
  C  C23  1  0.172619  0.897087  0.380793  1
  C  C24  1  0.827381  0.102913  0.619207  1
  C  C25  1  0.145647  0.039642  0.338418  1
  C  C26  1  0.854353  0.960358  0.661582  1
  C  C27  1  0.403933  0.397301  0.379816  1
  C  C28  1  0.596067  0.602699  0.620184  1
  C  C29  1  0.273208  0.424927  0.483139  1
  C  C30  1  0.726792  0.575073  0.516861  1
  C  C31  1  0.632536  0.474418  0.399361  1
  C  C32  1  0.367464  0.525582  0.600639  1
  H  H33  1  0.920368  0.288369  0.259918  1
  H  H34  1  0.079632  0.711631  0.740082  1
  H  H35  1  0.867728  0.240278  0.990017  1
  H  H36  1  0.132272  0.759722  0.009983  1
  H  H37  1  0.943083  0.085113  0.070927  1
  H  H38  1  0.056917  0.914887  0.929073  1
  H  H39  1  0.240637  0.267583  0.916421  1
  H  H40  1  0.759363  0.732417  0.083579  1
  H  H41  1  0.305092  0.107827  0.994395  1
  H  H42  1  0.694908  0.892173  0.005605  1
  H  H43  1  0.583761  0.329595  0.124670  1
  H  H44  1  0.416239  0.670405  0.875330  1
  H  H45  1  0.459558  0.590005  0.188447  1
  H  H46  1  0.540442  0.409995  0.811553  1
  H  H47  1  0.322378  0.530547  0.024751  1
  H  H48  1  0.677622  0.469453  0.975249  1
  H  H49  1  0.957123  0.513736  0.104323  1
  H  H50  1  0.042877  0.486264  0.895677  1
  H  H51  1  0.099904  0.565525  0.267663  1
  H  H52  1  0.900096  0.434475  0.732337  1
  H  H53  1  0.641223  0.103269  0.205312  1
  H  H54  1  0.358777  0.896731  0.794688  1
  H  H55  1  0.692186  0.853797  0.283874  1
  H  H56  1  0.307814  0.146203  0.716126  1
  H  H57  1  0.397537  0.724144  0.401637  1
  H  H58  1  0.602463  0.275856  0.598363  1
  H  H59  1  0.039036  0.838640  0.428134  1
  H  H60  1  0.960964  0.161360  0.571866  1
  H  H61  1  0.992083  0.090282  0.355217  1
  H  H62  1  0.007917  0.909718  0.644783  1
  H  H63  1  0.095574  0.367882  0.472825  1
  H  H64  1  0.904426  0.632118  0.527175  1
  H  H65  1  0.738484  0.458763  0.321519  1
  H  H66  1  0.261516  0.541237  0.678481  1
 
# Source:                            Grazulis_etal:NucleicAcidsRes.40.D420(2012)                                     
# Class:                             organic_molec_crystal                                                           
# Label:                             COD-1505461                                                                     
# Structure prediction method used:  NA                                                                              
# Number of atoms:                    66
# Number of atom types:                2
# Atom types:                         C  H
# Dielectric constant, electronic:   3.04736E+00
# Dielectric constant, ionic:        6.10150E-02
# Dielectric constant, total:        3.10838E+00
# Band gap at the GGA level (eV):    3.79150E+00
# Band gap at the HSE06 level (eV):  4.78890E+00
# Atomization energy (eV/atom):     -5.81121E+00
# Volume of the unit cell (A^3):     5.14613E+02
