# generated using pymatgen
data_H5C3
_symmetry_space_group_name_H-M   'P 1'
_cell_length_a   5.05692345
_cell_length_b   5.94781440
_cell_length_c   8.11092097
_cell_angle_alpha   70.90815143
_cell_angle_beta   74.81715067
_cell_angle_gamma   75.45024671
_symmetry_Int_Tables_number   1
_chemical_formula_structural   H5C3
_chemical_formula_sum   'H20 C12'
_cell_volume   218.795034752
_cell_formula_units_Z   4
loop_
 _symmetry_equiv_pos_site_id
 _symmetry_equiv_pos_as_xyz
  1  'x, y, z'
loop_
 _atom_site_type_symbol
 _atom_site_label
 _atom_site_symmetry_multiplicity
 _atom_site_fract_x
 _atom_site_fract_y
 _atom_site_fract_z
 _atom_site_occupancy
  C  C1  1  0.970482  0.552081  0.417762  1
  C  C2  1  0.029518  0.447919  0.582238  1
  C  C3  1  0.855864  0.819879  0.345702  1
  C  C4  1  0.144136  0.180121  0.654298  1
  C  C5  1  0.585092  0.860487  0.276645  1
  C  C6  1  0.414908  0.139513  0.723355  1
  C  C7  1  0.631051  0.726517  0.135680  1
  C  C8  1  0.368949  0.273483  0.864320  1
  C  C9  1  0.739595  0.455669  0.211587  1
  C  C10  1  0.260405  0.544331  0.788413  1
  C  C11  1  0.009299  0.415124  0.281794  1
  C  C12  1  0.990701  0.584876  0.718206  1
  H  H13  1  0.818351  0.919401  0.443578  1
  H  H14  1  0.181649  0.080599  0.556422  1
  H  H15  1  0.011747  0.900576  0.232684  1
  H  H16  1  0.988253  0.099424  0.767316  1
  H  H17  1  0.514637  0.054175  0.221679  1
  H  H18  1  0.485363  0.945825  0.778321  1
  H  H19  1  0.421055  0.793849  0.388371  1
  H  H20  1  0.578945  0.206151  0.611629  1
  H  H21  1  0.438100  0.753904  0.088430  1
  H  H22  1  0.561900  0.246096  0.911570  1
  H  H23  1  0.783708  0.803725  0.019307  1
  H  H24  1  0.216292  0.196275  0.980693  1
  H  H25  1  0.779011  0.359218  0.110800  1
  H  H26  1  0.220989  0.640782  0.889200  1
  H  H27  1  0.579308  0.377457  0.320876  1
  H  H28  1  0.420692  0.622543  0.679124  1
  H  H29  1  0.081943  0.222184  0.333859  1
  H  H30  1  0.918057  0.777816  0.666141  1
  H  H31  1  0.171699  0.481232  0.168104  1
  H  H32  1  0.828301  0.518768  0.831896  1
 
# Source:                            Grazulis_etal:NucleicAcidsRes.40.D420(2012)                                     
# Class:                             organic_molec_crystal                                                           
# Label:                             COD-2009665                                                                     
# Structure prediction method used:  NA                                                                              
# Number of atoms:                    32
# Number of atom types:                2
# Atom types:                         C  H
# Dielectric constant, electronic:   2.85745E+00
# Dielectric constant, ionic:        3.68720E-02
# Dielectric constant, total:        2.89432E+00
# Band gap at the GGA level (eV):    3.93390E+00
# Band gap at the HSE06 level (eV):  5.11070E+00
# Atomization energy (eV/atom):     -5.32035E+00
# Volume of the unit cell (A^3):     2.18795E+02
