# generated using pymatgen
data_H7C8
_symmetry_space_group_name_H-M   'P 1'
_cell_length_a   8.33935069
_cell_length_b   5.52941962
_cell_length_c   11.87907114
_cell_angle_alpha   90.00000000
_cell_angle_beta   109.17066074
_cell_angle_gamma   90.00000000
_symmetry_Int_Tables_number   1
_chemical_formula_structural   H7C8
_chemical_formula_sum   'H28 C32'
_cell_volume   517.388487749
_cell_formula_units_Z   4
loop_
 _symmetry_equiv_pos_site_id
 _symmetry_equiv_pos_as_xyz
  1  'x, y, z'
loop_
 _atom_site_type_symbol
 _atom_site_label
 _atom_site_symmetry_multiplicity
 _atom_site_fract_x
 _atom_site_fract_y
 _atom_site_fract_z
 _atom_site_occupancy
  C  C1  1  0.310281  0.660564  0.173547  1
  C  C2  1  0.689719  0.160564  0.826453  1
  C  C3  1  0.216607  0.504956  0.213221  1
  C  C4  1  0.783393  0.004956  0.786779  1
  C  C5  1  0.027938  0.502234  0.163596  1
  C  C6  1  0.972062  0.002234  0.836404  1
  C  C7  1  0.933841  0.304422  0.183426  1
  C  C8  1  0.066159  0.804422  0.816574  1
  C  C9  1  0.756493  0.302667  0.137986  1
  C  C10  1  0.243507  0.802667  0.862014  1
  C  C11  1  0.668924  0.497498  0.070419  1
  C  C12  1  0.331076  0.997498  0.929581  1
  C  C13  1  0.760677  0.692538  0.047832  1
  C  C14  1  0.239323  0.192538  0.952168  1
  C  C15  1  0.937328  0.696023  0.094263  1
  C  C16  1  0.062672  0.196023  0.905737  1
  C  C17  1  0.417388  0.170738  0.288645  1
  C  C18  1  0.582612  0.670738  0.711355  1
  C  C19  1  0.304745  0.325788  0.308231  1
  C  C20  1  0.695255  0.825788  0.691769  1
  C  C21  1  0.267213  0.330354  0.422292  1
  C  C22  1  0.732787  0.830354  0.577708  1
  C  C23  1  0.186411  0.531697  0.452883  1
  C  C24  1  0.813589  0.031697  0.547117  1
  C  C25  1  0.148675  0.536946  0.559149  1
  C  C26  1  0.851325  0.036946  0.440851  1
  C  C27  1  0.191677  0.341152  0.637549  1
  C  C28  1  0.808323  0.841152  0.362451  1
  C  C29  1  0.273356  0.140701  0.609018  1
  C  C30  1  0.726644  0.640701  0.390982  1
  C  C31  1  0.310708  0.134854  0.503056  1
  C  C32  1  0.689292  0.634854  0.496944  1
  H  H33  1  0.253970  0.787318  0.102280  1
  H  H34  1  0.746030  0.287318  0.897720  1
  H  H35  1  0.447144  0.664341  0.212182  1
  H  H36  1  0.552856  0.164341  0.787818  1
  H  H37  1  0.000337  0.151307  0.234958  1
  H  H38  1  0.999663  0.651307  0.765042  1
  H  H39  1  0.687317  0.149205  0.155740  1
  H  H40  1  0.312683  0.649205  0.844260  1
  H  H41  1  0.531522  0.498063  0.035275  1
  H  H42  1  0.468478  0.998063  0.964725  1
  H  H43  1  0.695918  0.843847  0.994403  1
  H  H44  1  0.304082  0.343847  0.005597  1
  H  H45  1  0.004210  0.852755  0.077711  1
  H  H46  1  0.995790  0.352755  0.922289  1
  H  H47  1  0.490089  0.044286  0.355370  1
  H  H48  1  0.509911  0.544286  0.644630  1
  H  H49  1  0.439518  0.167716  0.203774  1
  H  H50  1  0.560482  0.667716  0.796226  1
  H  H51  1  0.152165  0.685392  0.393126  1
  H  H52  1  0.847835  0.185392  0.606874  1
  H  H53  1  0.085182  0.693421  0.579695  1
  H  H54  1  0.914818  0.193421  0.420305  1
  H  H55  1  0.160593  0.341452  0.719219  1
  H  H56  1  0.839407  0.841452  0.280781  1
  H  H57  1  0.305619  0.986877  0.668550  1
  H  H58  1  0.694381  0.486877  0.331450  1
  H  H59  1  0.371417  0.975687  0.482341  1
  H  H60  1  0.628583  0.475687  0.517659  1
 
# Source:                            Grazulis_etal:NucleicAcidsRes.40.D420(2012)                                     
# Class:                             organic_molec_crystal                                                           
# Label:                             COD-2014806                                                                     
# Structure prediction method used:  NA                                                                              
# Number of atoms:                    60
# Number of atom types:                2
# Atom types:                         C  H
# Dielectric constant, electronic:   3.27397E+00
# Dielectric constant, ionic:        1.98667E-01
# Dielectric constant, total:        3.47264E+00
# Band gap at the GGA level (eV):    2.80280E+00
# Band gap at the HSE06 level (eV):  3.76950E+00
# Atomization energy (eV/atom):     -6.03615E+00
# Volume of the unit cell (A^3):     5.17388E+02
