# generated using pymatgen
data_H9C5
_symmetry_space_group_name_H-M   'P 1'
_cell_length_a   5.02106222
_cell_length_b   10.00109000
_cell_length_c   8.96865591
_cell_angle_alpha   90.00000000
_cell_angle_beta   122.88936648
_cell_angle_gamma   90.00000000
_symmetry_Int_Tables_number   1
_chemical_formula_structural   H9C5
_chemical_formula_sum   'H36 C20'
_cell_volume   378.185730519
_cell_formula_units_Z   4
loop_
 _symmetry_equiv_pos_site_id
 _symmetry_equiv_pos_as_xyz
  1  'x, y, z'
loop_
 _atom_site_type_symbol
 _atom_site_label
 _atom_site_symmetry_multiplicity
 _atom_site_fract_x
 _atom_site_fract_y
 _atom_site_fract_z
 _atom_site_occupancy
  C  C1  1  0.092313  0.160053  0.909876  1
  C  C2  1  0.907687  0.839947  0.090124  1
  C  C3  1  0.907687  0.660053  0.590124  1
  C  C4  1  0.092313  0.339947  0.409876  1
  C  C5  1  0.156200  0.029728  0.016088  1
  C  C6  1  0.843800  0.970272  0.983912  1
  C  C7  1  0.843800  0.529728  0.483912  1
  C  C8  1  0.156200  0.470272  0.516088  1
  C  C9  1  0.597377  0.951472  0.783473  1
  C  C10  1  0.402623  0.048528  0.216527  1
  C  C11  1  0.402623  0.451472  0.716527  1
  C  C12  1  0.597377  0.548528  0.283473  1
  C  C13  1  0.536104  0.083433  0.681794  1
  C  C14  1  0.463896  0.916567  0.318206  1
  C  C15  1  0.463896  0.583433  0.818206  1
  C  C16  1  0.536104  0.416567  0.181794  1
  C  C17  1  0.845572  0.140030  0.710688  1
  C  C18  1  0.154428  0.859970  0.289312  1
  C  C19  1  0.154428  0.640030  0.789312  1
  C  C20  1  0.845572  0.359970  0.210688  1
  H  H21  1  0.005239  0.236655  0.961140  1
  H  H22  1  0.994761  0.763345  0.038860  1
  H  H23  1  0.994761  0.736655  0.538860  1
  H  H24  1  0.005239  0.263345  0.461140  1
  H  H25  1  0.314992  0.198048  0.931000  1
  H  H26  1  0.685008  0.801952  0.069000  1
  H  H27  1  0.685008  0.698048  0.569000  1
  H  H28  1  0.314992  0.301952  0.431000  1
  H  H29  1  0.252537  0.955936  0.966151  1
  H  H30  1  0.747463  0.044064  0.033849  1
  H  H31  1  0.747463  0.455936  0.533849  1
  H  H32  1  0.252537  0.544064  0.466151  1
  H  H33  1  0.685457  0.876014  0.731186  1
  H  H34  1  0.314543  0.123986  0.268814  1
  H  H35  1  0.314543  0.376014  0.768814  1
  H  H36  1  0.685457  0.623986  0.231186  1
  H  H37  1  0.374692  0.912134  0.761694  1
  H  H38  1  0.625308  0.087866  0.238306  1
  H  H39  1  0.625308  0.412134  0.738306  1
  H  H40  1  0.374692  0.587866  0.261694  1
  H  H41  1  0.357990  0.069514  0.540529  1
  H  H42  1  0.642010  0.930486  0.459471  1
  H  H43  1  0.642010  0.569514  0.959471  1
  H  H44  1  0.357990  0.430486  0.040529  1
  H  H45  1  0.437649  0.156585  0.730161  1
  H  H46  1  0.562351  0.843415  0.269839  1
  H  H47  1  0.562351  0.656585  0.769839  1
  H  H48  1  0.437649  0.343415  0.230161  1
  H  H49  1  0.940164  0.070787  0.655382  1
  H  H50  1  0.059836  0.929213  0.344618  1
  H  H51  1  0.059836  0.570787  0.844618  1
  H  H52  1  0.940164  0.429213  0.155382  1
  H  H53  1  0.801015  0.234935  0.639611  1
  H  H54  1  0.198985  0.765065  0.360389  1
  H  H55  1  0.198985  0.734935  0.860389  1
  H  H56  1  0.801015  0.265065  0.139611  1
 
# Source:                            Grazulis_etal:NucleicAcidsRes.40.D420(2012)                                     
# Class:                             organic_molec_crystal                                                           
# Label:                             COD-2017140                                                                     
# Structure prediction method used:  NA                                                                              
# Number of atoms:                    56
# Number of atom types:                2
# Atom types:                         C  H
# Dielectric constant, electronic:   2.72671E+00
# Dielectric constant, ionic:        2.79280E-02
# Dielectric constant, total:        2.75464E+00
# Band gap at the GGA level (eV):    6.31170E+00
# Band gap at the HSE06 level (eV):  7.73380E+00
# Atomization energy (eV/atom):     -5.25519E+00
# Volume of the unit cell (A^3):     3.78186E+02
