# generated using pymatgen
data_HC
_symmetry_space_group_name_H-M   'P 1'
_cell_length_a   6.52405100
_cell_length_b   7.12988000
_cell_length_c   9.09409600
_cell_angle_alpha   90.00000000
_cell_angle_beta   90.00000000
_cell_angle_gamma   90.00000000
_symmetry_Int_Tables_number   1
_chemical_formula_structural   HC
_chemical_formula_sum   'H24 C24'
_cell_volume   423.018248072
_cell_formula_units_Z   24
loop_
 _symmetry_equiv_pos_site_id
 _symmetry_equiv_pos_as_xyz
  1  'x, y, z'
loop_
 _atom_site_type_symbol
 _atom_site_label
 _atom_site_symmetry_multiplicity
 _atom_site_fract_x
 _atom_site_fract_y
 _atom_site_fract_z
 _atom_site_occupancy
  C  C1  1  0.008366  0.944402  0.147538  1
  C  C2  1  0.991634  0.055598  0.852462  1
  C  C3  1  0.508366  0.555598  0.852462  1
  C  C4  1  0.491634  0.444402  0.147538  1
  C  C5  1  0.491634  0.055598  0.647538  1
  C  C6  1  0.508366  0.944402  0.352462  1
  C  C7  1  0.991634  0.444402  0.352462  1
  C  C8  1  0.008366  0.555598  0.647538  1
  C  C9  1  0.139173  0.085116  0.095750  1
  C  C10  1  0.860827  0.914884  0.904250  1
  C  C11  1  0.639173  0.414884  0.904250  1
  C  C12  1  0.360827  0.585116  0.095750  1
  C  C13  1  0.360827  0.914884  0.595750  1
  C  C14  1  0.639173  0.085116  0.404250  1
  C  C15  1  0.860827  0.585116  0.404250  1
  C  C16  1  0.139173  0.414884  0.595750  1
  C  C17  1  0.130626  0.141475  0.948444  1
  C  C18  1  0.869374  0.858525  0.051556  1
  C  C19  1  0.630626  0.358525  0.051556  1
  C  C20  1  0.369374  0.641475  0.948444  1
  C  C21  1  0.369374  0.858525  0.448444  1
  C  C22  1  0.630626  0.141475  0.551556  1
  C  C23  1  0.869374  0.641475  0.551556  1
  C  C24  1  0.130626  0.358525  0.448444  1
  H  H25  1  0.014980  0.902105  0.262012  1
  H  H26  1  0.985020  0.097895  0.737988  1
  H  H27  1  0.514980  0.597895  0.737988  1
  H  H28  1  0.485020  0.402105  0.262012  1
  H  H29  1  0.485020  0.097895  0.762012  1
  H  H30  1  0.514980  0.902105  0.237988  1
  H  H31  1  0.985020  0.402105  0.237988  1
  H  H32  1  0.014980  0.597895  0.762012  1
  H  H33  1  0.248233  0.150302  0.169363  1
  H  H34  1  0.751767  0.849698  0.830637  1
  H  H35  1  0.748233  0.349698  0.830637  1
  H  H36  1  0.251767  0.650302  0.169363  1
  H  H37  1  0.251767  0.849698  0.669363  1
  H  H38  1  0.748233  0.150302  0.330637  1
  H  H39  1  0.751767  0.650302  0.330637  1
  H  H40  1  0.248233  0.349698  0.669363  1
  H  H41  1  0.230867  0.252200  0.909817  1
  H  H42  1  0.769133  0.747800  0.090183  1
  H  H43  1  0.730867  0.247800  0.090183  1
  H  H44  1  0.269133  0.752200  0.909817  1
  H  H45  1  0.269133  0.747800  0.409817  1
  H  H46  1  0.730867  0.252200  0.590183  1
  H  H47  1  0.769133  0.752200  0.590183  1
  H  H48  1  0.230867  0.247800  0.409817  1
 
# Source:                            Grazulis_etal:NucleicAcidsRes.40.D420(2012)                                     
# Class:                             organic_molec_crystal                                                           
# Label:                             COD-2100349                                                                     
# Structure prediction method used:  NA                                                                              
# Number of atoms:                    48
# Number of atom types:                2
# Atom types:                         C  H
# Dielectric constant, electronic:   2.90118E+00
# Dielectric constant, ionic:        9.40620E-02
# Dielectric constant, total:        2.99524E+00
# Band gap at the GGA level (eV):    4.12660E+00
# Band gap at the HSE06 level (eV):  5.16320E+00
# Atomization energy (eV/atom):     -5.91552E+00
# Volume of the unit cell (A^3):     4.23018E+02
