# generated using pymatgen
data_H5C8
_symmetry_space_group_name_H-M   'P 1'
_cell_length_a   8.25000840
_cell_length_b   3.67824407
_cell_length_c   15.24879591
_cell_angle_alpha   90.00000000
_cell_angle_beta   102.45288350
_cell_angle_gamma   90.00000000
_symmetry_Int_Tables_number   1
_chemical_formula_structural   H5C8
_chemical_formula_sum   'H20 C32'
_cell_volume   451.846601284
_cell_formula_units_Z   4
loop_
 _symmetry_equiv_pos_site_id
 _symmetry_equiv_pos_as_xyz
  1  'x, y, z'
loop_
 _atom_site_type_symbol
 _atom_site_label
 _atom_site_symmetry_multiplicity
 _atom_site_fract_x
 _atom_site_fract_y
 _atom_site_fract_z
 _atom_site_occupancy
  C  C1  1  0.382982  0.970539  0.656485  1
  C  C2  1  0.617018  0.029461  0.343515  1
  C  C3  1  0.617018  0.470539  0.843515  1
  C  C4  1  0.382982  0.529461  0.156485  1
  C  C5  1  0.240090  0.841724  0.681159  1
  C  C6  1  0.759910  0.158276  0.318841  1
  C  C7  1  0.759910  0.341724  0.818841  1
  C  C8  1  0.240090  0.658276  0.181159  1
  C  C9  1  0.085549  0.853809  0.620017  1
  C  C10  1  0.914451  0.146191  0.379983  1
  C  C11  1  0.914451  0.353809  0.879983  1
  C  C12  1  0.085549  0.646191  0.120017  1
  C  C13  1  0.935311  0.725955  0.642794  1
  C  C14  1  0.064689  0.274045  0.357206  1
  C  C15  1  0.064689  0.225955  0.857206  1
  C  C16  1  0.935311  0.774045  0.142794  1
  C  C17  1  0.212997  0.265792  0.417793  1
  C  C18  1  0.787003  0.734208  0.582207  1
  C  C19  1  0.787003  0.765792  0.082207  1
  C  C20  1  0.212997  0.234208  0.917793  1
  C  C21  1  0.224840  0.127924  0.507181  1
  C  C22  1  0.775160  0.872076  0.492819  1
  C  C23  1  0.775160  0.627924  0.992819  1
  C  C24  1  0.224840  0.372076  0.007181  1
  C  C25  1  0.375585  0.115921  0.571247  1
  C  C26  1  0.624415  0.884079  0.428753  1
  C  C27  1  0.624415  0.615921  0.928753  1
  C  C28  1  0.375585  0.384079  0.071247  1
  C  C29  1  0.077407  0.995639  0.531699  1
  C  C30  1  0.922593  0.004361  0.468301  1
  C  C31  1  0.922593  0.495639  0.968301  1
  C  C32  1  0.077407  0.504361  0.031699  1
  H  H33  1  0.501421  0.954656  0.703762  1
  H  H34  1  0.498579  0.045344  0.296238  1
  H  H35  1  0.498579  0.454656  0.796238  1
  H  H36  1  0.501421  0.545344  0.203762  1
  H  H37  1  0.247030  0.725626  0.747426  1
  H  H38  1  0.752970  0.274374  0.252574  1
  H  H39  1  0.752970  0.225626  0.752574  1
  H  H40  1  0.247030  0.774374  0.247426  1
  H  H41  1  0.942032  0.620279  0.709709  1
  H  H42  1  0.057968  0.379721  0.290291  1
  H  H43  1  0.057968  0.120279  0.790291  1
  H  H44  1  0.942032  0.879721  0.209709  1
  H  H45  1  0.324836  0.364770  0.399010  1
  H  H46  1  0.675164  0.635230  0.600990  1
  H  H47  1  0.675164  0.864770  0.100990  1
  H  H48  1  0.324836  0.135230  0.899010  1
  H  H49  1  0.487200  0.219560  0.553520  1
  H  H50  1  0.512800  0.780440  0.446480  1
  H  H51  1  0.512800  0.719560  0.946480  1
  H  H52  1  0.487200  0.280440  0.053520  1
 
# Source:                            Grazulis_etal:NucleicAcidsRes.40.D420(2012)                                     
# Class:                             organic_molec_crystal                                                           
# Label:                             COD-2100608                                                                     
# Structure prediction method used:  NA                                                                              
# Number of atoms:                    52
# Number of atom types:                2
# Atom types:                         C  H
# Dielectric constant, electronic:   3.81184E+00
# Dielectric constant, ionic:        9.85290E-02
# Dielectric constant, total:        3.91037E+00
# Band gap at the GGA level (eV):    2.14680E+00
# Band gap at the HSE06 level (eV):  2.84600E+00
# Atomization energy (eV/atom):     -6.47488E+00
# Volume of the unit cell (A^3):     4.51847E+02
