# generated using pymatgen
data_H2C
_symmetry_space_group_name_H-M   'P 1'
_cell_length_a   5.09062027
_cell_length_b   10.65750000
_cell_length_c   9.85036761
_cell_angle_alpha   90.00000000
_cell_angle_beta   112.94034985
_cell_angle_gamma   90.00000000
_symmetry_Int_Tables_number   1
_chemical_formula_structural   H2C
_chemical_formula_sum   'H48 C24'
_cell_volume   492.148548873
_cell_formula_units_Z   24
loop_
 _symmetry_equiv_pos_site_id
 _symmetry_equiv_pos_as_xyz
  1  'x, y, z'
loop_
 _atom_site_type_symbol
 _atom_site_label
 _atom_site_symmetry_multiplicity
 _atom_site_fract_x
 _atom_site_fract_y
 _atom_site_fract_z
 _atom_site_occupancy
  C  C1  1  0.257343  0.741334  0.784756  1
  C  C2  1  0.742657  0.258666  0.215244  1
  C  C3  1  0.742657  0.241334  0.715244  1
  C  C4  1  0.257343  0.758666  0.284756  1
  C  C5  1  0.092250  0.805819  0.634909  1
  C  C6  1  0.907750  0.194181  0.365091  1
  C  C7  1  0.907750  0.305819  0.865091  1
  C  C8  1  0.092250  0.694181  0.134909  1
  C  C9  1  0.937826  0.918364  0.672116  1
  C  C10  1  0.062174  0.081636  0.327884  1
  C  C11  1  0.062174  0.418364  0.827884  1
  C  C12  1  0.937826  0.581636  0.172116  1
  C  C13  1  0.104994  0.944243  0.840661  1
  C  C14  1  0.895006  0.055757  0.159339  1
  C  C15  1  0.895006  0.444243  0.659339  1
  C  C16  1  0.104994  0.555757  0.340661  1
  C  C17  1  0.363924  0.854384  0.889363  1
  C  C18  1  0.636076  0.145616  0.110637  1
  C  C19  1  0.636076  0.354384  0.610637  1
  C  C20  1  0.363924  0.645616  0.389363  1
  C  C21  1  0.490058  0.650224  0.785979  1
  C  C22  1  0.509942  0.349776  0.214021  1
  C  C23  1  0.509942  0.150224  0.714021  1
  C  C24  1  0.490058  0.849776  0.285979  1
  H  H25  1  0.103045  0.690068  0.816607  1
  H  H26  1  0.896955  0.309932  0.183393  1
  H  H27  1  0.896955  0.190068  0.683393  1
  H  H28  1  0.103045  0.809932  0.316607  1
  H  H29  1  0.946390  0.742133  0.552991  1
  H  H30  1  0.053610  0.257867  0.447009  1
  H  H31  1  0.053610  0.242133  0.947009  1
  H  H32  1  0.946390  0.757867  0.052991  1
  H  H33  1  0.245684  0.840265  0.590089  1
  H  H34  1  0.754316  0.159735  0.409911  1
  H  H35  1  0.754316  0.340265  0.909911  1
  H  H36  1  0.245684  0.659735  0.090089  1
  H  H37  1  0.714734  0.895334  0.649029  1
  H  H38  1  0.285266  0.104666  0.350971  1
  H  H39  1  0.285266  0.395334  0.850971  1
  H  H40  1  0.714734  0.604666  0.149029  1
  H  H41  1  0.935371  0.000648  0.605272  1
  H  H42  1  0.064629  0.999352  0.394728  1
  H  H43  1  0.064629  0.500648  0.894728  1
  H  H44  1  0.935371  0.499352  0.105272  1
  H  H45  1  0.971220  0.922092  0.901557  1
  H  H46  1  0.028780  0.077908  0.098443  1
  H  H47  1  0.028780  0.422092  0.598443  1
  H  H48  1  0.971220  0.577908  0.401557  1
  H  H49  1  0.167785  0.042360  0.863308  1
  H  H50  1  0.832215  0.957640  0.136692  1
  H  H51  1  0.832215  0.542360  0.636692  1
  H  H52  1  0.167785  0.457640  0.363308  1
  H  H53  1  0.439736  0.828385  0.005470  1
  H  H54  1  0.560264  0.171615  0.994530  1
  H  H55  1  0.560264  0.328385  0.494530  1
  H  H56  1  0.439736  0.671615  0.505470  1
  H  H57  1  0.542844  0.898107  0.871493  1
  H  H58  1  0.457156  0.101893  0.128507  1
  H  H59  1  0.457156  0.398107  0.628507  1
  H  H60  1  0.542844  0.601893  0.371493  1
  H  H61  1  0.589784  0.603243  0.892550  1
  H  H62  1  0.410216  0.396757  0.107450  1
  H  H63  1  0.410216  0.103243  0.607450  1
  H  H64  1  0.589784  0.896757  0.392550  1
  H  H65  1  0.403039  0.577761  0.701915  1
  H  H66  1  0.596961  0.422239  0.298085  1
  H  H67  1  0.596961  0.077761  0.798085  1
  H  H68  1  0.403039  0.922239  0.201915  1
  H  H69  1  0.656937  0.700192  0.763631  1
  H  H70  1  0.343063  0.299808  0.236369  1
  H  H71  1  0.343063  0.200192  0.736369  1
  H  H72  1  0.656937  0.799808  0.263631  1
 
# Source:                            Grazulis_etal:NucleicAcidsRes.40.D420(2012)                                     
# Class:                             organic_molec_crystal                                                           
# Label:                             COD-2208541                                                                     
# Structure prediction method used:  NA                                                                              
# Number of atoms:                    72
# Number of atom types:                2
# Atom types:                         C  H
# Dielectric constant, electronic:   2.62833E+00
# Dielectric constant, ionic:        2.38830E-02
# Dielectric constant, total:        2.65221E+00
# Band gap at the GGA level (eV):    6.89770E+00
# Band gap at the HSE06 level (eV):  8.37730E+00
# Atomization energy (eV/atom):     -5.13598E+00
# Volume of the unit cell (A^3):     4.92149E+02
