# generated using pymatgen
data_H21C11
_symmetry_space_group_name_H-M   'P 1'
_cell_length_a   5.89330890
_cell_length_b   7.86190450
_cell_length_c   10.26866949
_cell_angle_alpha   85.61906863
_cell_angle_beta   87.56108360
_cell_angle_gamma   68.86317288
_symmetry_Int_Tables_number   1
_chemical_formula_structural   H21C11
_chemical_formula_sum   'H42 C22'
_cell_volume   442.411094377
_cell_formula_units_Z   2
loop_
 _symmetry_equiv_pos_site_id
 _symmetry_equiv_pos_as_xyz
  1  'x, y, z'
loop_
 _atom_site_type_symbol
 _atom_site_label
 _atom_site_symmetry_multiplicity
 _atom_site_fract_x
 _atom_site_fract_y
 _atom_site_fract_z
 _atom_site_occupancy
  C  C1  1  0.712879  0.215121  0.431366  1
  C  C2  1  0.287121  0.784879  0.568634  1
  C  C3  1  0.694114  0.147343  0.295595  1
  C  C4  1  0.305886  0.852657  0.704405  1
  C  C5  1  0.492987  0.277693  0.201261  1
  C  C6  1  0.507013  0.722307  0.798739  1
  C  C7  1  0.460323  0.221839  0.084706  1
  C  C8  1  0.539677  0.778161  0.915294  1
  C  C9  1  0.588288  0.049126  0.014956  1
  C  C10  1  0.411712  0.950874  0.985044  1
  C  C11  1  0.947228  0.109592  0.228690  1
  C  C12  1  0.052772  0.890408  0.771310  1
  C  C13  1  0.643209  0.967734  0.327894  1
  C  C14  1  0.356791  0.032266  0.672106  1
  C  C15  1  0.327762  0.473752  0.237667  1
  C  C16  1  0.672238  0.526248  0.762333  1
  C  C17  1  0.480550  0.596135  0.252251  1
  C  C18  1  0.519450  0.403865  0.747749  1
  C  C19  1  0.139019  0.576653  0.130731  1
  C  C20  1  0.860981  0.423347  0.869269  1
  C  C21  1  0.175640  0.468134  0.364477  1
  C  C22  1  0.824360  0.531866  0.635523  1
  H  H23  1  0.552822  0.230970  0.492870  1
  H  H24  1  0.447178  0.769030  0.507130  1
  H  H25  1  0.748825  0.341419  0.426309  1
  H  H26  1  0.251175  0.658581  0.573691  1
  H  H27  1  0.866399  0.111598  0.482013  1
  H  H28  1  0.133601  0.888402  0.517987  1
  H  H29  1  0.315311  0.315187  0.024532  1
  H  H30  1  0.684689  0.684813  0.975468  1
  H  H31  1  0.745008  0.951165  0.065584  1
  H  H32  1  0.254992  0.048835  0.934416  1
  H  H33  1  0.657915  0.088427  0.921323  1
  H  H34  1  0.342085  0.911573  0.078677  1
  H  H35  1  0.963362  0.049285  0.135285  1
  H  H36  1  0.036638  0.950715  0.864715  1
  H  H37  1  0.091432  0.016875  0.291921  1
  H  H38  1  0.908568  0.983125  0.708079  1
  H  H39  1  0.982829  0.236582  0.210240  1
  H  H40  1  0.017171  0.763418  0.789760  1
  H  H41  1  0.650808  0.890899  0.243082  1
  H  H42  1  0.349192  0.109101  0.756918  1
  H  H43  1  0.461858  0.000291  0.372365  1
  H  H44  1  0.538142  0.999709  0.627635  1
  H  H45  1  0.775372  0.877847  0.398532  1
  H  H46  1  0.224628  0.122153  0.601468  1
  H  H47  1  0.607079  0.550758  0.332745  1
  H  H48  1  0.392921  0.449242  0.667255  1
  H  H49  1  0.358519  0.735344  0.269419  1
  H  H50  1  0.641481  0.264656  0.730581  1
  H  H51  1  0.585340  0.601221  0.162609  1
  H  H52  1  0.414660  0.398779  0.837391  1
  H  H53  1  0.012311  0.507055  0.116285  1
  H  H54  1  0.987689  0.492945  0.883715  1
  H  H55  1  0.224967  0.595399  0.036828  1
  H  H56  1  0.775033  0.404601  0.963172  1
  H  H57  1  0.032395  0.712442  0.162846  1
  H  H58  1  0.967605  0.287558  0.837154  1
  H  H59  1  0.094977  0.363203  0.362297  1
  H  H60  1  0.905023  0.636797  0.637703  1
  H  H61  1  0.027583  0.599880  0.372964  1
  H  H62  1  0.972417  0.400120  0.627036  1
  H  H63  1  0.281673  0.440805  0.452706  1
  H  H64  1  0.718327  0.559195  0.547294  1
 
# Source:                            Grazulis_etal:NucleicAcidsRes.40.D420(2012)                                     
# Class:                             organic_molec_crystal                                                           
# Label:                             COD-2209023                                                                     
# Structure prediction method used:  NA                                                                              
# Number of atoms:                    64
# Number of atom types:                2
# Atom types:                         C  H
# Dielectric constant, electronic:   2.74022E+00
# Dielectric constant, ionic:        4.04260E-02
# Dielectric constant, total:        2.78064E+00
# Band gap at the GGA level (eV):    4.52770E+00
# Band gap at the HSE06 level (eV):  5.81280E+00
# Atomization energy (eV/atom):     -5.15825E+00
# Volume of the unit cell (A^3):     4.42411E+02
