# generated using pymatgen
data_H23C15
_symmetry_space_group_name_H-M   'P 1'
_cell_length_a   5.80695884
_cell_length_b   9.52641899
_cell_length_c   10.27430752
_cell_angle_alpha   89.41116235
_cell_angle_beta   83.00555056
_cell_angle_gamma   75.70338102
_symmetry_Int_Tables_number   1
_chemical_formula_structural   H23C15
_chemical_formula_sum   'H46 C30'
_cell_volume   546.552937617
_cell_formula_units_Z   2
loop_
 _symmetry_equiv_pos_site_id
 _symmetry_equiv_pos_as_xyz
  1  'x, y, z'
loop_
 _atom_site_type_symbol
 _atom_site_label
 _atom_site_symmetry_multiplicity
 _atom_site_fract_x
 _atom_site_fract_y
 _atom_site_fract_z
 _atom_site_occupancy
  C  C1  1  0.165388  0.908645  0.075555  1
  C  C2  1  0.834612  0.091355  0.924445  1
  C  C3  1  0.033554  0.046543  0.125361  1
  C  C4  1  0.966446  0.953457  0.874639  1
  C  C5  1  0.872816  0.133501  0.048473  1
  C  C6  1  0.127184  0.866499  0.951527  1
  C  C7  1  0.054900  0.105454  0.259484  1
  C  C8  1  0.945100  0.894546  0.740516  1
  C  C9  1  0.164719  0.238830  0.248416  1
  C  C10  1  0.835281  0.761170  0.751584  1
  C  C11  1  0.182341  0.297922  0.385041  1
  C  C12  1  0.817659  0.702078  0.614959  1
  C  C13  1  0.937669  0.335065  0.471187  1
  C  C14  1  0.062331  0.664935  0.528813  1
  C  C15  1  0.829855  0.202885  0.482400  1
  C  C16  1  0.170145  0.797115  0.517600  1
  C  C17  1  0.809816  0.143237  0.347143  1
  C  C18  1  0.190184  0.856763  0.652857  1
  C  C19  1  0.343115  0.808417  0.153985  1
  C  C20  1  0.656885  0.191583  0.846015  1
  C  C21  1  0.411867  0.647147  0.109871  1
  C  C22  1  0.588133  0.352853  0.890129  1
  C  C23  1  0.573702  0.554265  0.203046  1
  C  C24  1  0.426298  0.445735  0.796954  1
  C  C25  1  0.803349  0.607161  0.203224  1
  C  C26  1  0.196651  0.392839  0.796776  1
  C  C27  1  0.742175  0.767783  0.245440  1
  C  C28  1  0.257825  0.232217  0.754560  1
  C  C29  1  0.574586  0.861482  0.155949  1
  C  C30  1  0.425414  0.138518  0.844051  1
  H  H31  1  0.773740  0.239314  0.087376  1
  H  H32  1  0.226260  0.760686  0.912624  1
  H  H33  1  0.175843  0.022693  0.310640  1
  H  H34  1  0.824157  0.977307  0.689360  1
  H  H35  1  0.342395  0.208447  0.190933  1
  H  H36  1  0.657605  0.791553  0.809067  1
  H  H37  1  0.054213  0.323355  0.193499  1
  H  H38  1  0.945787  0.676645  0.806501  1
  H  H39  1  0.307323  0.214668  0.434422  1
  H  H40  1  0.692677  0.785332  0.565578  1
  H  H41  1  0.258739  0.392464  0.375574  1
  H  H42  1  0.741261  0.607536  0.624426  1
  H  H43  1  0.812952  0.424924  0.429021  1
  H  H44  1  0.187048  0.575076  0.570979  1
  H  H45  1  0.957362  0.371757  0.568814  1
  H  H46  1  0.042638  0.628243  0.431186  1
  H  H47  1  0.653000  0.231483  0.540028  1
  H  H48  1  0.347000  0.768517  0.459972  1
  H  H49  1  0.944087  0.118265  0.535642  1
  H  H50  1  0.055913  0.881735  0.464358  1
  H  H51  1  0.738113  0.046698  0.357953  1
  H  H52  1  0.261887  0.953302  0.642047  1
  H  H53  1  0.680876  0.224441  0.298842  1
  H  H54  1  0.319124  0.775559  0.701158  1
  H  H55  1  0.258583  0.811839  0.255627  1
  H  H56  1  0.741417  0.188161  0.744373  1
  H  H57  1  0.511398  0.635343  0.010935  1
  H  H58  1  0.488602  0.364657  0.989065  1
  H  H59  1  0.251749  0.607453  0.104532  1
  H  H60  1  0.748251  0.392547  0.895468  1
  H  H61  1  0.478038  0.562213  0.303075  1
  H  H62  1  0.521962  0.437787  0.696925  1
  H  H63  1  0.616589  0.439864  0.173108  1
  H  H64  1  0.383411  0.560136  0.826892  1
  H  H65  1  0.924068  0.541963  0.266779  1
  H  H66  1  0.075932  0.458037  0.733221  1
  H  H67  1  0.899374  0.593758  0.103074  1
  H  H68  1  0.100626  0.406242  0.896926  1
  H  H69  1  0.904801  0.805437  0.244748  1
  H  H70  1  0.095199  0.194563  0.755252  1
  H  H71  1  0.655161  0.779766  0.347270  1
  H  H72  1  0.344839  0.220234  0.652730  1
  H  H73  1  0.666311  0.855482  0.055608  1
  H  H74  1  0.333689  0.144518  0.944392  1
  H  H75  1  0.531525  0.975273  0.187146  1
  H  H76  1  0.468475  0.024727  0.812854  1
 
# Source:                            Grazulis_etal:NucleicAcidsRes.40.D420(2012)                                     
# Class:                             organic_molec_crystal                                                           
# Label:                             COD-2217508                                                                     
# Structure prediction method used:  NA                                                                              
# Number of atoms:                    76
# Number of atom types:                2
# Atom types:                         C  H
# Dielectric constant, electronic:   2.80791E+00
# Dielectric constant, ionic:        4.51140E-02
# Dielectric constant, total:        2.85302E+00
# Band gap at the GGA level (eV):    4.14330E+00
# Band gap at the HSE06 level (eV):  5.20930E+00
# Atomization energy (eV/atom):     -5.42138E+00
# Volume of the unit cell (A^3):     5.46553E+02
