# generated using pymatgen
data_H3C2
_symmetry_space_group_name_H-M   'P 1'
_cell_length_a   7.45734556
_cell_length_b   7.71382501
_cell_length_c   7.96066866
_cell_angle_alpha   69.00988842
_cell_angle_beta   73.92353193
_cell_angle_gamma   76.81722027
_symmetry_Int_Tables_number   1
_chemical_formula_structural   H3C2
_chemical_formula_sum   'H36 C24'
_cell_volume   406.566868297
_cell_formula_units_Z   12
loop_
 _symmetry_equiv_pos_site_id
 _symmetry_equiv_pos_as_xyz
  1  'x, y, z'
loop_
 _atom_site_type_symbol
 _atom_site_label
 _atom_site_symmetry_multiplicity
 _atom_site_fract_x
 _atom_site_fract_y
 _atom_site_fract_z
 _atom_site_occupancy
  C  C1  1  0.405376  0.157202  0.361439  1
  C  C2  1  0.594624  0.842798  0.638561  1
  C  C3  1  0.357263  0.365600  0.233298  1
  C  C4  1  0.642737  0.634400  0.766702  1
  C  C5  1  0.235482  0.297802  0.145577  1
  C  C6  1  0.764518  0.702198  0.854423  1
  C  C7  1  0.271674  0.094169  0.276266  1
  C  C8  1  0.728326  0.905831  0.723734  1
  C  C9  1  0.337857  0.130573  0.571350  1
  C  C10  1  0.662143  0.869427  0.428650  1
  C  C11  1  0.125639  0.224122  0.620795  1
  C  C12  1  0.874361  0.775878  0.379205  1
  C  C13  1  0.192532  0.383762  0.653712  1
  C  C14  1  0.807468  0.616238  0.346288  1
  C  C15  1  0.399070  0.282137  0.628615  1
  C  C16  1  0.600930  0.717863  0.371385  1
  C  C17  1  0.384022  0.924378  0.692567  1
  C  C18  1  0.615978  0.075622  0.307433  1
  C  C19  1  0.238412  0.793209  0.713435  1
  C  C20  1  0.761588  0.206791  0.286565  1
  C  C21  1  0.153418  0.790966  0.915574  1
  C  C22  1  0.846582  0.209034  0.084426  1
  C  C23  1  0.310280  0.898678  0.905768  1
  C  C24  1  0.689720  0.101322  0.094232  1
  H  H25  1  0.479087  0.427776  0.137547  1
  H  H26  1  0.520913  0.572224  0.862453  1
  H  H27  1  0.278284  0.465910  0.304713  1
  H  H28  1  0.721716  0.534090  0.695287  1
  H  H29  1  0.291671  0.314067  0.999569  1
  H  H30  1  0.708329  0.685933  0.000431  1
  H  H31  1  0.088041  0.361506  0.162945  1
  H  H32  1  0.911959  0.638494  0.837055  1
  H  H33  1  0.339623  0.989539  0.207554  1
  H  H34  1  0.660377  0.010461  0.792446  1
  H  H35  1  0.145153  0.044259  0.373491  1
  H  H36  1  0.854847  0.955741  0.626509  1
  H  H37  1  0.048915  0.269262  0.510361  1
  H  H38  1  0.951085  0.730738  0.489639  1
  H  H39  1  0.038808  0.139190  0.743735  1
  H  H40  1  0.961192  0.860810  0.256265  1
  H  H41  1  0.172728  0.520097  0.549217  1
  H  H42  1  0.827272  0.479903  0.450783  1
  H  H43  1  0.131331  0.401932  0.788621  1
  H  H44  1  0.868669  0.598068  0.211379  1
  H  H45  1  0.503111  0.363984  0.524347  1
  H  H46  1  0.496889  0.636016  0.475653  1
  H  H47  1  0.450036  0.225059  0.756335  1
  H  H48  1  0.549964  0.774941  0.243665  1
  H  H49  1  0.141676  0.850190  0.619991  1
  H  H50  1  0.858324  0.149810  0.380009  1
  H  H51  1  0.305575  0.655307  0.703894  1
  H  H52  1  0.694425  0.344693  0.296106  1
  H  H53  1  0.012025  0.869441  0.935279  1
  H  H54  1  0.987975  0.130559  0.064721  1
  H  H55  1  0.151463  0.652385  0.018147  1
  H  H56  1  0.848537  0.347615  0.981853  1
  H  H57  1  0.260223  0.028445  0.940430  1
  H  H58  1  0.739777  0.971555  0.059570  1
  H  H59  1  0.410670  0.813405  0.991167  1
  H  H60  1  0.589330  0.186595  0.008833  1
 
# Source:                            Grazulis_etal:NucleicAcidsRes.40.D420(2012)                                     
# Class:                             organic_molec_crystal                                                           
# Label:                             COD-4116667                                                                     
# Structure prediction method used:  NA                                                                              
# Number of atoms:                    60
# Number of atom types:                2
# Atom types:                         C  H
# Dielectric constant, electronic:   2.84918E+00
# Dielectric constant, ionic:        2.39520E-02
# Dielectric constant, total:        2.87313E+00
# Band gap at the GGA level (eV):    5.60940E+00
# Band gap at the HSE06 level (eV):  6.93070E+00
# Atomization energy (eV/atom):     -5.33438E+00
# Volume of the unit cell (A^3):     4.06567E+02
