# generated using pymatgen
data_H7C8
_symmetry_space_group_name_H-M   'P 1'
_cell_length_a   8.09848715
_cell_length_b   7.68448700
_cell_length_c   8.49523882
_cell_angle_alpha   90.00000000
_cell_angle_beta   107.82513269
_cell_angle_gamma   90.00000000
_symmetry_Int_Tables_number   1
_chemical_formula_structural   H7C8
_chemical_formula_sum   'H28 C32'
_cell_volume   503.302551868
_cell_formula_units_Z   4
loop_
 _symmetry_equiv_pos_site_id
 _symmetry_equiv_pos_as_xyz
  1  'x, y, z'
loop_
 _atom_site_type_symbol
 _atom_site_label
 _atom_site_symmetry_multiplicity
 _atom_site_fract_x
 _atom_site_fract_y
 _atom_site_fract_z
 _atom_site_occupancy
  C  C1  1  0.779960  0.689284  0.185439  1
  C  C2  1  0.220040  0.189284  0.814561  1
  C  C3  1  0.661183  0.757853  0.042817  1
  C  C4  1  0.338817  0.257853  0.957183  1
  C  C5  1  0.712292  0.869852  0.936032  1
  C  C6  1  0.287708  0.369852  0.063968  1
  C  C7  1  0.886864  0.906416  0.968152  1
  C  C8  1  0.113136  0.406416  0.031848  1
  C  C9  1  0.010799  0.842682  0.112041  1
  C  C10  1  0.989201  0.342682  0.887959  1
  C  C11  1  0.191939  0.863530  0.130864  1
  C  C12  1  0.808061  0.363530  0.869136  1
  C  C13  1  0.314069  0.787339  0.259199  1
  C  C14  1  0.685931  0.287339  0.740801  1
  C  C15  1  0.267970  0.707722  0.392816  1
  C  C16  1  0.732030  0.207722  0.607184  1
  C  C17  1  0.401192  0.650526  0.533604  1
  C  C18  1  0.598808  0.150526  0.466396  1
  C  C19  1  0.362593  0.600084  0.674594  1
  C  C20  1  0.637407  0.100084  0.325406  1
  C  C21  1  0.192587  0.617553  0.680245  1
  C  C22  1  0.807413  0.117553  0.319755  1
  C  C23  1  0.055726  0.669960  0.543434  1
  C  C24  1  0.944274  0.169960  0.456566  1
  C  C25  1  0.088822  0.702093  0.389657  1
  C  C26  1  0.911178  0.202093  0.610343  1
  C  C27  1  0.956667  0.745560  0.232720  1
  C  C28  1  0.043333  0.245560  0.767280  1
  C  C29  1  0.719259  0.535304  0.264376  1
  C  C30  1  0.280741  0.035304  0.735624  1
  C  C31  1  0.886804  0.711611  0.578392  1
  C  C32  1  0.113196  0.211611  0.421608  1
  H  H33  1  0.526960  0.714987  0.010534  1
  H  H34  1  0.473040  0.214987  0.989466  1
  H  H35  1  0.618519  0.918467  0.824556  1
  H  H36  1  0.381481  0.418467  0.175444  1
  H  H37  1  0.931477  0.982244  0.881813  1
  H  H38  1  0.068523  0.482244  0.118187  1
  H  H39  1  0.228022  0.935162  0.036502  1
  H  H40  1  0.771978  0.435162  0.963498  1
  H  H41  1  0.450256  0.794397  0.268354  1
  H  H42  1  0.549744  0.294397  0.731646  1
  H  H43  1  0.534608  0.653895  0.532173  1
  H  H44  1  0.465392  0.153895  0.467827  1
  H  H45  1  0.464374  0.558063  0.783269  1
  H  H46  1  0.535626  0.058063  0.216731  1
  H  H47  1  0.167178  0.598374  0.797164  1
  H  H48  1  0.832822  0.098374  0.202836  1
  H  H49  1  0.657826  0.441225  0.167504  1
  H  H50  1  0.342174  0.941225  0.832496  1
  H  H51  1  0.622975  0.569091  0.325451  1
  H  H52  1  0.377025  0.069091  0.674549  1
  H  H53  1  0.825802  0.468933  0.353398  1
  H  H54  1  0.174198  0.968933  0.646602  1
  H  H55  1  0.816669  0.593871  0.592680  1
  H  H56  1  0.183331  0.093871  0.407320  1
  H  H57  1  0.800768  0.793947  0.483876  1
  H  H58  1  0.199232  0.293947  0.516124  1
  H  H59  1  0.917080  0.780817  0.696136  1
  H  H60  1  0.082920  0.280817  0.303864  1
 
# Source:                            Grazulis_etal:NucleicAcidsRes.40.D420(2012)                                     
# Class:                             organic_molec_crystal                                                           
# Label:                             COD-4121363                                                                     
# Structure prediction method used:  NA                                                                              
# Number of atoms:                    60
# Number of atom types:                2
# Atom types:                         C  H
# Dielectric constant, electronic:   3.47631E+00
# Dielectric constant, ionic:        1.15914E-01
# Dielectric constant, total:        3.59223E+00
# Band gap at the GGA level (eV):    2.68960E+00
# Band gap at the HSE06 level (eV):  3.51420E+00
# Atomization energy (eV/atom):     -6.06425E+00
# Volume of the unit cell (A^3):     5.03303E+02
