# generated using pymatgen
data_H11C15
_symmetry_space_group_name_H-M   'P 1'
_cell_length_a   5.61668875
_cell_length_b   7.01431850
_cell_length_c   11.68093034
_cell_angle_alpha   95.57308718
_cell_angle_beta   90.66114197
_cell_angle_gamma   95.03410876
_symmetry_Int_Tables_number   1
_chemical_formula_structural   H11C15
_chemical_formula_sum   'H22 C30'
_cell_volume   456.161008964
_cell_formula_units_Z   2
loop_
 _symmetry_equiv_pos_site_id
 _symmetry_equiv_pos_as_xyz
  1  'x, y, z'
loop_
 _atom_site_type_symbol
 _atom_site_label
 _atom_site_symmetry_multiplicity
 _atom_site_fract_x
 _atom_site_fract_y
 _atom_site_fract_z
 _atom_site_occupancy
  C  C1  1  0.181301  0.096544  0.435043  1
  C  C2  1  0.818699  0.903456  0.564957  1
  C  C3  1  0.011792  0.954352  0.379627  1
  C  C4  1  0.988208  0.045648  0.620373  1
  C  C5  1  0.836374  0.864149  0.445243  1
  C  C6  1  0.163626  0.135851  0.554757  1
  C  C7  1  0.366814  0.210954  0.373886  1
  C  C8  1  0.633186  0.789046  0.626114  1
  C  C9  1  0.325972  0.261155  0.261705  1
  C  C10  1  0.674028  0.738845  0.738295  1
  C  C11  1  0.502494  0.365322  0.204473  1
  C  C12  1  0.497506  0.634678  0.795527  1
  C  C13  1  0.723671  0.424832  0.258098  1
  C  C14  1  0.276329  0.575168  0.741902  1
  C  C15  1  0.764285  0.382727  0.370879  1
  C  C16  1  0.235715  0.617273  0.629121  1
  C  C17  1  0.588452  0.277787  0.428137  1
  C  C18  1  0.411548  0.722213  0.571863  1
  C  C19  1  0.008748  0.888566  0.254191  1
  C  C20  1  0.991252  0.111434  0.745809  1
  C  C21  1  0.195940  0.791011  0.204624  1
  C  C22  1  0.804060  0.208989  0.795376  1
  C  C23  1  0.183306  0.721103  0.088428  1
  C  C24  1  0.816694  0.278897  0.911572  1
  C  C25  1  0.985067  0.747832  0.020305  1
  C  C26  1  0.014933  0.252168  0.979695  1
  C  C27  1  0.798524  0.845433  0.068724  1
  C  C28  1  0.201476  0.154567  0.931276  1
  C  C29  1  0.809834  0.914378  0.185146  1
  C  C30  1  0.190166  0.085622  0.814854  1
  H  H31  1  0.713402  0.752856  0.401043  1
  H  H32  1  0.286598  0.247144  0.598957  1
  H  H33  1  0.154998  0.218640  0.219402  1
  H  H34  1  0.845002  0.781360  0.780598  1
  H  H35  1  0.467061  0.400325  0.117917  1
  H  H36  1  0.532939  0.599675  0.882083  1
  H  H37  1  0.861106  0.504585  0.213475  1
  H  H38  1  0.138894  0.495415  0.786525  1
  H  H39  1  0.934801  0.429676  0.413632  1
  H  H40  1  0.065199  0.570324  0.586368  1
  H  H41  1  0.627031  0.243026  0.514478  1
  H  H42  1  0.372969  0.756974  0.485522  1
  H  H43  1  0.348559  0.766773  0.257466  1
  H  H44  1  0.651441  0.233227  0.742534  1
  H  H45  1  0.327122  0.644449  0.050896  1
  H  H46  1  0.672878  0.355551  0.949104  1
  H  H47  1  0.978952  0.694017  0.930248  1
  H  H48  1  0.021048  0.305983  0.069752  1
  H  H49  1  0.646949  0.871482  0.015807  1
  H  H50  1  0.353051  0.128518  0.984193  1
  H  H51  1  0.666120  0.991502  0.222478  1
  H  H52  1  0.333880  0.008498  0.777522  1
 
# Source:                            Grazulis_etal:NucleicAcidsRes.40.D420(2012)                                     
# Class:                             organic_molec_crystal                                                           
# Label:                             COD-4500036                                                                     
# Structure prediction method used:  NA                                                                              
# Number of atoms:                    52
# Number of atom types:                2
# Atom types:                         C  H
# Dielectric constant, electronic:   3.49480E+00
# Dielectric constant, ionic:        1.00992E-01
# Dielectric constant, total:        3.59580E+00
# Band gap at the GGA level (eV):    2.83270E+00
# Band gap at the HSE06 level (eV):  3.67580E+00
# Atomization energy (eV/atom):     -6.26582E+00
# Volume of the unit cell (A^3):     4.56161E+02
