# generated using pymatgen
data_H11C15
_symmetry_space_group_name_H-M   'P 1'
_cell_length_a   5.94954881
_cell_length_b   8.08667086
_cell_length_c   10.44126186
_cell_angle_alpha   107.88025727
_cell_angle_beta   93.65064149
_cell_angle_gamma   92.57144130
_symmetry_Int_Tables_number   1
_chemical_formula_structural   H11C15
_chemical_formula_sum   'H22 C30'
_cell_volume   476.018364425
_cell_formula_units_Z   2
loop_
 _symmetry_equiv_pos_site_id
 _symmetry_equiv_pos_as_xyz
  1  'x, y, z'
loop_
 _atom_site_type_symbol
 _atom_site_label
 _atom_site_symmetry_multiplicity
 _atom_site_fract_x
 _atom_site_fract_y
 _atom_site_fract_z
 _atom_site_occupancy
  C  C1  1  0.152960  0.959740  0.897270  1
  C  C2  1  0.847040  0.040260  0.102730  1
  C  C3  1  0.042931  0.117191  0.926415  1
  C  C4  1  0.957069  0.882809  0.073585  1
  C  C5  1  0.891559  0.153171  0.027151  1
  C  C6  1  0.108441  0.846829  0.972849  1
  C  C7  1  0.307345  0.907032  0.787207  1
  C  C8  1  0.692655  0.092968  0.212793  1
  C  C9  1  0.245994  0.911812  0.655711  1
  C  C10  1  0.754006  0.088188  0.344289  1
  C  C11  1  0.391157  0.855743  0.553611  1
  C  C12  1  0.608843  0.144257  0.446389  1
  C  C13  1  0.600582  0.795453  0.580089  1
  C  C14  1  0.399418  0.204547  0.419911  1
  C  C15  1  0.661657  0.788028  0.709345  1
  C  C16  1  0.338343  0.211972  0.290655  1
  C  C17  1  0.515727  0.842780  0.811559  1
  C  C18  1  0.484273  0.157220  0.188441  1
  C  C19  1  0.089114  0.247248  0.854985  1
  C  C20  1  0.910886  0.752752  0.145015  1
  C  C21  1  0.309004  0.321504  0.858961  1
  C  C22  1  0.690996  0.678496  0.141039  1
  C  C23  1  0.353887  0.433932  0.784345  1
  C  C24  1  0.646113  0.566068  0.215655  1
  C  C25  1  0.179984  0.474080  0.704160  1
  C  C26  1  0.820016  0.525920  0.295840  1
  C  C27  1  0.960136  0.405019  0.702498  1
  C  C28  1  0.039864  0.594981  0.297502  1
  C  C29  1  0.914694  0.293143  0.778215  1
  C  C30  1  0.085306  0.706857  0.221785  1
  H  H31  1  0.813751  0.276590  0.051175  1
  H  H32  1  0.186249  0.723410  0.948825  1
  H  H33  1  0.084073  0.957672  0.633122  1
  H  H34  1  0.915927  0.042328  0.366878  1
  H  H35  1  0.342827  0.861811  0.453711  1
  H  H36  1  0.657173  0.138189  0.546289  1
  H  H37  1  0.714454  0.755968  0.500937  1
  H  H38  1  0.285546  0.244032  0.499063  1
  H  H39  1  0.822515  0.740997  0.731299  1
  H  H40  1  0.177485  0.259003  0.268701  1
  H  H41  1  0.564387  0.836431  0.911459  1
  H  H42  1  0.435613  0.163569  0.088541  1
  H  H43  1  0.445430  0.289144  0.919284  1
  H  H44  1  0.554570  0.710856  0.080716  1
  H  H45  1  0.523907  0.490047  0.788346  1
  H  H46  1  0.476093  0.509953  0.211654  1
  H  H47  1  0.215911  0.558750  0.644091  1
  H  H48  1  0.784089  0.441250  0.355909  1
  H  H49  1  0.825067  0.435384  0.640352  1
  H  H50  1  0.174933  0.564616  0.359648  1
  H  H51  1  0.745236  0.235008  0.773905  1
  H  H52  1  0.254764  0.764992  0.226095  1
 
# Source:                            Grazulis_etal:NucleicAcidsRes.40.D420(2012)                                     
# Class:                             organic_molec_crystal                                                           
# Label:                             COD-4500038                                                                     
# Structure prediction method used:  NA                                                                              
# Number of atoms:                    52
# Number of atom types:                2
# Atom types:                         C  H
# Dielectric constant, electronic:   3.32234E+00
# Dielectric constant, ionic:        8.78100E-02
# Dielectric constant, total:        3.41015E+00
# Band gap at the GGA level (eV):    2.95560E+00
# Band gap at the HSE06 level (eV):  3.81920E+00
# Atomization energy (eV/atom):     -6.26460E+00
# Volume of the unit cell (A^3):     4.76018E+02
