# generated using pymatgen
data_H9C5
_symmetry_space_group_name_H-M   'P 1'
_cell_length_a   11.47425935
_cell_length_b   4.58793700
_cell_length_c   8.29356980
_cell_angle_alpha   90.00000000
_cell_angle_beta   107.72453440
_cell_angle_gamma   90.00000000
_symmetry_Int_Tables_number   1
_chemical_formula_structural   H9C5
_chemical_formula_sum   'H36 C20'
_cell_volume   415.875009654
_cell_formula_units_Z   4
loop_
 _symmetry_equiv_pos_site_id
 _symmetry_equiv_pos_as_xyz
  1  'x, y, z'
loop_
 _atom_site_type_symbol
 _atom_site_label
 _atom_site_symmetry_multiplicity
 _atom_site_fract_x
 _atom_site_fract_y
 _atom_site_fract_z
 _atom_site_occupancy
  C  C1  1  0.584653  0.242446  0.651069  1
  C  C2  1  0.415347  0.757554  0.348931  1
  C  C3  1  0.415347  0.742446  0.848931  1
  C  C4  1  0.584653  0.257554  0.151069  1
  C  C5  1  0.683580  0.073368  0.704953  1
  C  C6  1  0.316420  0.926632  0.295047  1
  C  C7  1  0.316420  0.573368  0.795047  1
  C  C8  1  0.683580  0.426632  0.204953  1
  C  C9  1  0.745749  0.930208  0.589993  1
  C  C10  1  0.254251  0.069792  0.410007  1
  C  C11  1  0.254251  0.430208  0.910007  1
  C  C12  1  0.745749  0.569792  0.089993  1
  C  C13  1  0.873187  0.063676  0.610926  1
  C  C14  1  0.126813  0.936324  0.389074  1
  C  C15  1  0.126813  0.563676  0.889074  1
  C  C16  1  0.873187  0.436324  0.110926  1
  C  C17  1  0.936508  0.933967  0.488955  1
  C  C18  1  0.063492  0.066033  0.511045  1
  C  C19  1  0.063492  0.433967  0.011045  1
  C  C20  1  0.936508  0.566033  0.988955  1
  H  H21  1  0.543184  0.348102  0.736910  1
  H  H22  1  0.456816  0.651898  0.263090  1
  H  H23  1  0.456816  0.848102  0.763090  1
  H  H24  1  0.543184  0.151898  0.236910  1
  H  H25  1  0.540526  0.277522  0.516979  1
  H  H26  1  0.459474  0.722478  0.483021  1
  H  H27  1  0.459474  0.777522  0.983021  1
  H  H28  1  0.540526  0.222478  0.016979  1
  H  H29  1  0.725622  0.039144  0.840275  1
  H  H30  1  0.274378  0.960856  0.159725  1
  H  H31  1  0.274378  0.539144  0.659725  1
  H  H32  1  0.725622  0.460856  0.340275  1
  H  H33  1  0.688757  0.951835  0.457936  1
  H  H34  1  0.311243  0.048165  0.542064  1
  H  H35  1  0.311243  0.451835  0.042064  1
  H  H36  1  0.688757  0.548165  0.957936  1
  H  H37  1  0.755897  0.695782  0.617537  1
  H  H38  1  0.244103  0.304218  0.382463  1
  H  H39  1  0.244103  0.195782  0.882463  1
  H  H40  1  0.755897  0.804218  0.117537  1
  H  H41  1  0.863057  0.299800  0.590004  1
  H  H42  1  0.136943  0.700200  0.409996  1
  H  H43  1  0.136943  0.799800  0.909996  1
  H  H44  1  0.863057  0.200200  0.090004  1
  H  H45  1  0.931455  0.034299  0.741890  1
  H  H46  1  0.068545  0.965701  0.258110  1
  H  H47  1  0.068545  0.534299  0.758110  1
  H  H48  1  0.931455  0.465701  0.241890  1
  H  H49  1  0.878138  0.967470  0.358398  1
  H  H50  1  0.121862  0.032530  0.641602  1
  H  H51  1  0.121862  0.467470  0.141602  1
  H  H52  1  0.878138  0.532530  0.858398  1
  H  H53  1  0.945308  0.697092  0.507879  1
  H  H54  1  0.054692  0.302908  0.492121  1
  H  H55  1  0.054692  0.197092  0.992121  1
  H  H56  1  0.945308  0.802908  0.007879  1
 
# Source:                            Grazulis_etal:NucleicAcidsRes.40.D420(2012)                                     
# Class:                             organic_molec_crystal                                                           
# Label:                             COD-7111226                                                                     
# Structure prediction method used:  NA                                                                              
# Number of atoms:                    56
# Number of atom types:                2
# Atom types:                         C  H
# Dielectric constant, electronic:   2.70351E+00
# Dielectric constant, ionic:        6.99630E-02
# Dielectric constant, total:        2.77347E+00
# Band gap at the GGA level (eV):    4.46540E+00
# Band gap at the HSE06 level (eV):  5.74500E+00
# Atomization energy (eV/atom):     -5.21864E+00
# Volume of the unit cell (A^3):     4.15875E+02
