# generated using pymatgen
data_H11C7
_symmetry_space_group_name_H-M   'P 1'
_cell_length_a   6.05720775
_cell_length_b   9.31861230
_cell_length_c   9.59675900
_cell_angle_alpha   90.00000113
_cell_angle_beta   90.00000013
_cell_angle_gamma   95.71699359
_symmetry_Int_Tables_number   1
_chemical_formula_structural   H11C7
_chemical_formula_sum   'H44 C28'
_cell_volume   538.992547117
_cell_formula_units_Z   4
loop_
 _symmetry_equiv_pos_site_id
 _symmetry_equiv_pos_as_xyz
  1  'x, y, z'
loop_
 _atom_site_type_symbol
 _atom_site_label
 _atom_site_symmetry_multiplicity
 _atom_site_fract_x
 _atom_site_fract_y
 _atom_site_fract_z
 _atom_site_occupancy
  C  C1  1  0.060830  0.111282  0.400380  1
  C  C2  1  0.939171  0.888718  0.599620  1
  C  C3  1  0.439174  0.388717  0.900380  1
  C  C4  1  0.560833  0.611282  0.099621  1
  C  C5  1  0.847406  0.091894  0.458340  1
  C  C6  1  0.152591  0.908107  0.541660  1
  C  C7  1  0.652589  0.408110  0.958341  1
  C  C8  1  0.347404  0.591897  0.041662  1
  C  C9  1  0.212324  0.016093  0.444053  1
  C  C10  1  0.787677  0.983906  0.555947  1
  C  C11  1  0.287674  0.483905  0.944051  1
  C  C12  1  0.712321  0.516092  0.055945  1
  C  C13  1  0.117850  0.230913  0.292745  1
  C  C14  1  0.882150  0.769087  0.707255  1
  C  C15  1  0.382149  0.269087  0.792745  1
  C  C16  1  0.617849  0.730913  0.207255  1
  C  C17  1  0.368381  0.253891  0.259875  1
  C  C18  1  0.631619  0.746109  0.740125  1
  C  C19  1  0.131619  0.246109  0.759875  1
  C  C20  1  0.868381  0.753891  0.240125  1
  C  C21  1  0.047134  0.376086  0.348298  1
  C  C22  1  0.952866  0.623914  0.651702  1
  C  C23  1  0.452866  0.123914  0.848298  1
  C  C24  1  0.547134  0.876086  0.151703  1
  C  C25  1  0.992545  0.189170  0.155169  1
  C  C26  1  0.007455  0.810830  0.844831  1
  C  C27  1  0.507455  0.310830  0.655169  1
  C  C28  1  0.492545  0.689170  0.344831  1
  H  H29  1  0.725137  0.162957  0.427836  1
  H  H30  1  0.274864  0.837043  0.572164  1
  H  H31  1  0.774866  0.337041  0.927836  1
  H  H32  1  0.225139  0.662956  0.072163  1
  H  H33  1  0.378621  0.024333  0.401835  1
  H  H34  1  0.621379  0.975667  0.598165  1
  H  H35  1  0.121380  0.475667  0.901835  1
  H  H36  1  0.878622  0.524333  0.098166  1
  H  H37  1  0.465774  0.283645  0.353408  1
  H  H38  1  0.534226  0.716355  0.646592  1
  H  H39  1  0.034226  0.216355  0.853408  1
  H  H40  1  0.965774  0.783645  0.146592  1
  H  H41  1  0.399530  0.341346  0.185178  1
  H  H42  1  0.600470  0.658654  0.814822  1
  H  H43  1  0.100470  0.158654  0.685178  1
  H  H44  1  0.899530  0.841346  0.314822  1
  H  H45  1  0.428614  0.157712  0.213933  1
  H  H46  1  0.571386  0.842288  0.786067  1
  H  H47  1  0.071386  0.342288  0.713933  1
  H  H48  1  0.928614  0.657712  0.286067  1
  H  H49  1  0.867290  0.373456  0.362089  1
  H  H50  1  0.132710  0.626544  0.637911  1
  H  H51  1  0.632710  0.126544  0.862089  1
  H  H52  1  0.367290  0.873456  0.137911  1
  H  H53  1  0.099042  0.462261  0.274573  1
  H  H54  1  0.900958  0.537739  0.725427  1
  H  H55  1  0.400958  0.037738  0.774573  1
  H  H56  1  0.599042  0.962261  0.225427  1
  H  H57  1  0.126892  0.403830  0.448595  1
  H  H58  1  0.873108  0.596170  0.551405  1
  H  H59  1  0.373108  0.096170  0.948595  1
  H  H60  1  0.626892  0.903830  0.051405  1
  H  H61  1  0.038736  0.085665  0.115647  1
  H  H62  1  0.961264  0.914335  0.884353  1
  H  H63  1  0.461264  0.414335  0.615647  1
  H  H64  1  0.538736  0.585665  0.384353  1
  H  H65  1  0.036119  0.271558  0.076261  1
  H  H66  1  0.963881  0.728442  0.923739  1
  H  H67  1  0.463881  0.228442  0.576261  1
  H  H68  1  0.536119  0.771558  0.423739  1
  H  H69  1  0.812620  0.179815  0.169672  1
  H  H70  1  0.187380  0.820185  0.830328  1
  H  H71  1  0.687380  0.320185  0.669672  1
  H  H72  1  0.312620  0.679815  0.330328  1
 
# Source:                            Grazulis_etal:NucleicAcidsRes.40.D420(2012)                                     
# Class:                             organic_molec_crystal                                                           
# Label:                             COD-4107261                                                                     
# Structure prediction method used:  NA                                                                              
# Number of atoms:                    72
# Number of atom types:                2
# Atom types:                         C  H
# Dielectric constant, electronic:   2.77473E+00
# Dielectric constant, ionic:        6.10950E-02
# Dielectric constant, total:        2.83582E+00
# Band gap at the GGA level (eV):    4.23170E+00
# Band gap at the HSE06 level (eV):  5.32160E+00
# Atomization energy (eV/atom):     -5.40363E+00
# Volume of the unit cell (A^3):     5.38993E+02
