# generated using pymatgen
data_H2C3
_symmetry_space_group_name_H-M   'P 1'
_cell_length_a   6.85174733
_cell_length_b   8.15594309
_cell_length_c   11.56468203
_cell_angle_alpha   90.48939940
_cell_angle_beta   105.09760686
_cell_angle_gamma   95.66734964
_symmetry_Int_Tables_number   1
_chemical_formula_structural   H2C3
_chemical_formula_sum   'H28 C42'
_cell_volume   620.511316042
_cell_formula_units_Z   14
loop_
 _symmetry_equiv_pos_site_id
 _symmetry_equiv_pos_as_xyz
  1  'x, y, z'
loop_
 _atom_site_type_symbol
 _atom_site_label
 _atom_site_symmetry_multiplicity
 _atom_site_fract_x
 _atom_site_fract_y
 _atom_site_fract_z
 _atom_site_occupancy
  C  C1  1  0.541136  0.189040  0.837807  1
  C  C2  1  0.458864  0.810960  0.162193  1
  C  C3  1  0.412296  0.051130  0.853992  1
  C  C4  1  0.587704  0.948870  0.146008  1
  C  C5  1  0.355960  0.920335  0.769059  1
  C  C6  1  0.644040  0.079665  0.230941  1
  C  C7  1  0.430743  0.924081  0.667604  1
  C  C8  1  0.569257  0.075919  0.332396  1
  C  C9  1  0.562851  0.058911  0.652000  1
  C  C10  1  0.437149  0.941089  0.348000  1
  C  C11  1  0.616390  0.190236  0.736021  1
  C  C12  1  0.383610  0.809764  0.263979  1
  C  C13  1  0.234430  0.388812  0.731275  1
  C  C14  1  0.765570  0.611188  0.268725  1
  C  C15  1  0.094127  0.248699  0.695930  1
  C  C16  1  0.905873  0.751301  0.304070  1
  C  C17  1  0.034906  0.190207  0.576955  1
  C  C18  1  0.965094  0.809793  0.423045  1
  C  C19  1  0.114099  0.270678  0.490197  1
  C  C20  1  0.885901  0.729322  0.509803  1
  C  C21  1  0.252403  0.411539  0.523838  1
  C  C22  1  0.747597  0.588461  0.476162  1
  C  C23  1  0.310635  0.470188  0.643158  1
  C  C24  1  0.689365  0.529812  0.356842  1
  C  C25  1  0.604895  0.326580  0.931350  1
  C  C26  1  0.395105  0.673420  0.068650  1
  C  C27  1  0.471941  0.445540  0.945277  1
  C  C28  1  0.528059  0.554460  0.054723  1
  C  C29  1  0.286550  0.463144  0.856658  1
  C  C30  1  0.713450  0.536856  0.143342  1
  C  C31  1  0.147861  0.567381  0.880002  1
  C  C32  1  0.852139  0.432619  0.119998  1
  C  C33  1  0.956927  0.581899  0.794533  1
  C  C34  1  0.043073  0.418101  0.205467  1
  C  C35  1  0.825932  0.689304  0.813063  1
  C  C36  1  0.174068  0.310696  0.186937  1
  C  C37  1  0.877068  0.791805  0.918790  1
  C  C38  1  0.122932  0.208195  0.081210  1
  C  C39  1  0.059395  0.785199  0.002089  1
  C  C40  1  0.940605  0.214801  0.997911  1
  C  C41  1  0.202076  0.673777  0.987240  1
  C  C42  1  0.797924  0.326223  0.012760  1
  H  H43  1  0.351631  0.047877  0.931680  1
  H  H44  1  0.648369  0.952123  0.068320  1
  H  H45  1  0.252563  0.817030  0.781445  1
  H  H46  1  0.747437  0.182970  0.218555  1
  H  H47  1  0.385164  0.823618  0.600897  1
  H  H48  1  0.614836  0.176382  0.399103  1
  H  H49  1  0.623229  0.062767  0.574379  1
  H  H50  1  0.376771  0.937233  0.425621  1
  H  H51  1  0.714802  0.296096  0.721970  1
  H  H52  1  0.285198  0.703904  0.278030  1
  H  H53  1  0.033492  0.183775  0.762420  1
  H  H54  1  0.966508  0.816225  0.237580  1
  H  H55  1  0.928002  0.080784  0.552203  1
  H  H56  1  0.071998  0.919216  0.447797  1
  H  H57  1  0.067631  0.224168  0.397946  1
  H  H58  1  0.932369  0.775832  0.602054  1
  H  H59  1  0.314648  0.477041  0.457912  1
  H  H60  1  0.685352  0.522959  0.542088  1
  H  H61  1  0.416612  0.579900  0.668644  1
  H  H62  1  0.583388  0.420100  0.331356  1
  H  H63  1  0.917909  0.507104  0.712742  1
  H  H64  1  0.082091  0.492896  0.287258  1
  H  H65  1  0.683909  0.698957  0.746739  1
  H  H66  1  0.316091  0.301043  0.253261  1
  H  H67  1  0.770325  0.874777  0.932317  1
  H  H68  1  0.229675  0.125223  0.067683  1
  H  H69  1  0.096650  0.865004  0.081546  1
  H  H70  1  0.903350  0.134996  0.918454  1
 
# Source:                            Grazulis_etal:NucleicAcidsRes.40.D420(2012)                                     
# Class:                             organic_molec_crystal                                                           
# Label:                             COD-1516689                                                                     
# Structure prediction method used:  NA                                                                              
# Number of atoms:                    70
# Number of atom types:                2
# Atom types:                         C  H
# Dielectric constant, electronic:   3.72426E+00
# Dielectric constant, ionic:        1.01714E-01
# Dielectric constant, total:        3.82597E+00
# Band gap at the GGA level (eV):    1.18650E+00
# Band gap at the HSE06 level (eV):  1.75570E+00
# Atomization energy (eV/atom):     -6.35833E+00
# Volume of the unit cell (A^3):     6.20511E+02
