# generated using pymatgen
data_H9C7
_symmetry_space_group_name_H-M   'P 1'
_cell_length_a   8.98827203
_cell_length_b   5.07939500
_cell_length_c   11.49545756
_cell_angle_alpha   90.00000000
_cell_angle_beta   111.27720361
_cell_angle_gamma   90.00000000
_symmetry_Int_Tables_number   1
_chemical_formula_structural   H9C7
_chemical_formula_sum   'H36 C28'
_cell_volume   489.050597313
_cell_formula_units_Z   4
loop_
 _symmetry_equiv_pos_site_id
 _symmetry_equiv_pos_as_xyz
  1  'x, y, z'
loop_
 _atom_site_type_symbol
 _atom_site_label
 _atom_site_symmetry_multiplicity
 _atom_site_fract_x
 _atom_site_fract_y
 _atom_site_fract_z
 _atom_site_occupancy
  C  C1  1  0.556019  0.391326  0.494091  1
  C  C2  1  0.443981  0.608674  0.505909  1
  C  C3  1  0.443981  0.891326  0.005909  1
  C  C4  1  0.556019  0.108674  0.994091  1
  C  C5  1  0.649359  0.266185  0.615750  1
  C  C6  1  0.350641  0.733815  0.384250  1
  C  C7  1  0.350641  0.766185  0.884250  1
  C  C8  1  0.649359  0.233815  0.115750  1
  C  C9  1  0.639134  0.257163  0.730107  1
  C  C10  1  0.360866  0.742837  0.269893  1
  C  C11  1  0.360866  0.757163  0.769893  1
  C  C12  1  0.639134  0.242837  0.230107  1
  C  C13  1  0.774187  0.055485  0.781457  1
  C  C14  1  0.225813  0.944515  0.218543  1
  C  C15  1  0.225813  0.555485  0.718543  1
  C  C16  1  0.774187  0.444515  0.281457  1
  C  C17  1  0.788162  0.080528  0.650354  1
  C  C18  1  0.211838  0.919472  0.349646  1
  C  C19  1  0.211838  0.580528  0.849646  1
  C  C20  1  0.788162  0.419472  0.150354  1
  C  C21  1  0.822932  0.877679  0.567614  1
  C  C22  1  0.177068  0.122321  0.432386  1
  C  C23  1  0.177068  0.377679  0.932386  1
  C  C24  1  0.822932  0.622321  0.067614  1
  C  C25  1  0.937004  0.105005  0.618736  1
  C  C26  1  0.062996  0.894995  0.381264  1
  C  C27  1  0.062996  0.605005  0.881264  1
  C  C28  1  0.937004  0.394995  0.118736  1
  H  H29  1  0.485644  0.238592  0.429855  1
  H  H30  1  0.514356  0.761408  0.570145  1
  H  H31  1  0.514356  0.738592  0.070145  1
  H  H32  1  0.485644  0.261408  0.929855  1
  H  H33  1  0.637128  0.470464  0.451146  1
  H  H34  1  0.362872  0.529536  0.548854  1
  H  H35  1  0.362872  0.970464  0.048854  1
  H  H36  1  0.637128  0.029536  0.951146  1
  H  H37  1  0.561857  0.352838  0.770712  1
  H  H38  1  0.438143  0.647162  0.229288  1
  H  H39  1  0.438143  0.852838  0.729288  1
  H  H40  1  0.561857  0.147162  0.270712  1
  H  H41  1  0.736460  0.859820  0.800097  1
  H  H42  1  0.263540  0.140180  0.199903  1
  H  H43  1  0.263540  0.359820  0.699903  1
  H  H44  1  0.736460  0.640180  0.300097  1
  H  H45  1  0.878998  0.117027  0.860931  1
  H  H46  1  0.121002  0.882973  0.139069  1
  H  H47  1  0.121002  0.617027  0.639069  1
  H  H48  1  0.878998  0.382973  0.360931  1
  H  H49  1  0.860422  0.682900  0.605258  1
  H  H50  1  0.139578  0.317100  0.394742  1
  H  H51  1  0.139578  0.182900  0.894742  1
  H  H52  1  0.860422  0.817100  0.105258  1
  H  H53  1  0.748799  0.882587  0.469067  1
  H  H54  1  0.251201  0.117413  0.530933  1
  H  H55  1  0.251201  0.382587  0.030933  1
  H  H56  1  0.748799  0.617413  0.969067  1
  H  H57  1  0.051162  0.062047  0.691432  1
  H  H58  1  0.948838  0.937953  0.308568  1
  H  H59  1  0.948838  0.562047  0.808568  1
  H  H60  1  0.051162  0.437953  0.191432  1
  H  H61  1  0.940890  0.257967  0.554082  1
  H  H62  1  0.059110  0.742033  0.445918  1
  H  H63  1  0.059110  0.757967  0.945918  1
  H  H64  1  0.940890  0.242033  0.054082  1
 
# Source:                            Grazulis_etal:NucleicAcidsRes.40.D420(2012)                                     
# Class:                             organic_molec_crystal                                                           
# Label:                             COD-2001127                                                                     
# Structure prediction method used:  NA                                                                              
# Number of atoms:                    64
# Number of atom types:                2
# Atom types:                         C  H
# Dielectric constant, electronic:   2.88512E+00
# Dielectric constant, ionic:        1.04000E-01
# Dielectric constant, total:        2.98912E+00
# Band gap at the GGA level (eV):    4.08430E+00
# Band gap at the HSE06 level (eV):  5.31480E+00
# Atomization energy (eV/atom):     -5.45664E+00
# Volume of the unit cell (A^3):     4.89051E+02
