# generated using pymatgen
data_H2C3
_symmetry_space_group_name_H-M   'P 1'
_cell_length_a   11.53017993
_cell_length_b   6.62715600
_cell_length_c   7.09681862
_cell_angle_alpha   90.00000000
_cell_angle_beta   90.36518027
_cell_angle_gamma   90.00000000
_symmetry_Int_Tables_number   1
_chemical_formula_structural   H2C3
_chemical_formula_sum   'H24 C36'
_cell_volume   542.2732265
_cell_formula_units_Z   12
loop_
 _symmetry_equiv_pos_site_id
 _symmetry_equiv_pos_as_xyz
  1  'x, y, z'
loop_
 _atom_site_type_symbol
 _atom_site_label
 _atom_site_symmetry_multiplicity
 _atom_site_fract_x
 _atom_site_fract_y
 _atom_site_fract_z
 _atom_site_occupancy
  C  C1  1  0.551988  0.949125  0.006243  1
  C  C2  1  0.448012  0.050875  0.993757  1
  C  C3  1  0.448012  0.449125  0.493757  1
  C  C4  1  0.551988  0.550875  0.506243  1
  C  C5  1  0.572311  0.738581  0.953468  1
  C  C6  1  0.427689  0.261419  0.046532  1
  C  C7  1  0.427689  0.238581  0.546532  1
  C  C8  1  0.572311  0.761419  0.453468  1
  C  C9  1  0.686384  0.690798  0.977420  1
  C  C10  1  0.313616  0.309202  0.022580  1
  C  C11  1  0.313616  0.190798  0.522580  1
  C  C12  1  0.686384  0.809202  0.477420  1
  C  C13  1  0.748126  0.866132  0.049684  1
  C  C14  1  0.251874  0.133868  0.950316  1
  C  C15  1  0.251874  0.366132  0.450316  1
  C  C16  1  0.748126  0.633868  0.549684  1
  C  C17  1  0.666768  0.026910  0.072306  1
  C  C18  1  0.333232  0.973090  0.927694  1
  C  C19  1  0.333232  0.526910  0.427694  1
  C  C20  1  0.666768  0.473090  0.572306  1
  C  C21  1  0.704501  0.207550  0.152418  1
  C  C22  1  0.295499  0.792450  0.847582  1
  C  C23  1  0.295499  0.707550  0.347582  1
  C  C24  1  0.704501  0.292450  0.652418  1
  C  C25  1  0.821918  0.229137  0.204984  1
  C  C26  1  0.178082  0.770863  0.795016  1
  C  C27  1  0.178082  0.729137  0.295016  1
  C  C28  1  0.821918  0.270863  0.704984  1
  C  C29  1  0.900862  0.071698  0.179651  1
  C  C30  1  0.099138  0.928302  0.820349  1
  C  C31  1  0.099138  0.571698  0.320349  1
  C  C32  1  0.900862  0.428302  0.679651  1
  C  C33  1  0.864094  0.887885  0.100750  1
  C  C34  1  0.135906  0.112115  0.899250  1
  C  C35  1  0.135906  0.387885  0.399250  1
  C  C36  1  0.864094  0.612115  0.600750  1
  H  H37  1  0.507233  0.637062  0.899749  1
  H  H38  1  0.492767  0.362938  0.100251  1
  H  H39  1  0.492767  0.137062  0.600251  1
  H  H40  1  0.507233  0.862938  0.399749  1
  H  H41  1  0.726552  0.546975  0.949522  1
  H  H42  1  0.273448  0.453025  0.050478  1
  H  H43  1  0.273448  0.046975  0.550478  1
  H  H44  1  0.726552  0.953025  0.449522  1
  H  H45  1  0.646478  0.332152  0.179005  1
  H  H46  1  0.353522  0.667848  0.820995  1
  H  H47  1  0.353522  0.832152  0.320995  1
  H  H48  1  0.646478  0.167848  0.679005  1
  H  H49  1  0.850317  0.369903  0.268144  1
  H  H50  1  0.149683  0.630097  0.731856  1
  H  H51  1  0.149683  0.869903  0.231856  1
  H  H52  1  0.850317  0.130097  0.768144  1
  H  H53  1  0.990935  0.091058  0.220013  1
  H  H54  1  0.009065  0.908942  0.779987  1
  H  H55  1  0.009065  0.591058  0.279987  1
  H  H56  1  0.990935  0.408942  0.720013  1
  H  H57  1  0.924636  0.764831  0.079228  1
  H  H58  1  0.075364  0.235169  0.920772  1
  H  H59  1  0.075364  0.264831  0.420772  1
  H  H60  1  0.924636  0.735169  0.579228  1
 
# Source:                            Grazulis_etal:NucleicAcidsRes.40.D420(2012)                                     
# Class:                             organic_molec_crystal                                                           
# Label:                             COD-2004669                                                                     
# Structure prediction method used:  NA                                                                              
# Number of atoms:                    60
# Number of atom types:                2
# Atom types:                         C  H
# Dielectric constant, electronic:   3.94919E+00
# Dielectric constant, ionic:        1.62564E-01
# Dielectric constant, total:        4.11175E+00
# Band gap at the GGA level (eV):    1.54990E+00
# Band gap at the HSE06 level (eV):  2.24110E+00
# Atomization energy (eV/atom):     -6.33566E+00
# Volume of the unit cell (A^3):     5.42273E+02
