# generated using pymatgen
data_H14(C3O2)3
_symmetry_space_group_name_H-M   'P 1'
_cell_length_a   8.58090000
_cell_length_b   4.86370768
_cell_length_c   10.02361902
_cell_angle_alpha   90.00000000
_cell_angle_beta   98.92243388
_cell_angle_gamma   90.00000000
_symmetry_Int_Tables_number   1
_chemical_formula_structural   H14(C3O2)3
_chemical_formula_sum   'H28 C18 O12'
_cell_volume   413.273441507
_cell_formula_units_Z   2
loop_
 _symmetry_equiv_pos_site_id
 _symmetry_equiv_pos_as_xyz
  1  'x, y, z'
loop_
 _atom_site_type_symbol
 _atom_site_label
 _atom_site_symmetry_multiplicity
 _atom_site_fract_x
 _atom_site_fract_y
 _atom_site_fract_z
 _atom_site_occupancy
  C  C1  1  0.310517  0.073588  0.962984  1
  C  C2  1  0.689483  0.573588  0.037016  1
  C  C3  1  0.041349  0.192196  0.866930  1
  C  C4  1  0.958651  0.692196  0.133070  1
  C  C5  1  0.034733  0.904535  0.814196  1
  C  C6  1  0.965267  0.404535  0.185804  1
  C  C7  1  0.178311  0.841162  0.747116  1
  C  C8  1  0.821689  0.341162  0.252884  1
  C  C9  1  0.185810  0.013333  0.619898  1
  C  C10  1  0.814190  0.513333  0.380102  1
  C  C11  1  0.358979  0.995129  0.603102  1
  C  C12  1  0.641021  0.495129  0.396898  1
  C  C13  1  0.443634  0.054837  0.747707  1
  C  C14  1  0.556366  0.554837  0.252293  1
  C  C15  1  0.336672  0.906862  0.839968  1
  C  C16  1  0.663328  0.406862  0.160032  1
  C  C17  1  0.616122  0.963541  0.772699  1
  C  C18  1  0.383878  0.463541  0.227301  1
  H  H19  1  0.158316  0.228785  0.637695  1
  H  H20  1  0.841684  0.728785  0.362305  1
  H  H21  1  0.390758  0.136376  0.527147  1
  H  H22  1  0.609242  0.636376  0.472853  1
  H  H23  1  0.389979  0.713036  0.877147  1
  H  H24  1  0.610021  0.213036  0.122853  1
  H  H25  1  0.668623  0.018065  0.875616  1
  H  H26  1  0.331377  0.518065  0.124384  1
  H  H27  1  0.628995  0.742761  0.758320  1
  H  H28  1  0.371005  0.242761  0.241680  1
  H  H29  1  0.778925  0.232406  0.731621  1
  H  H30  1  0.221075  0.732406  0.268379  1
  H  H31  1  0.004950  0.075512  0.479880  1
  H  H32  1  0.995050  0.575512  0.520120  1
  H  H33  1  0.354660  0.675051  0.475400  1
  H  H34  1  0.645340  0.175051  0.524600  1
  H  H35  1  0.433949  0.454501  0.690813  1
  H  H36  1  0.566051  0.954501  0.309187  1
  H  H37  1  0.278583  0.943544  0.042613  1
  H  H38  1  0.721417  0.443544  0.957387  1
  H  H39  1  0.412610  0.195963  0.001796  1
  H  H40  1  0.587390  0.695963  0.998204  1
  H  H41  1  0.925695  0.872643  0.744526  1
  H  H42  1  0.074305  0.372643  0.255474  1
  H  H43  1  0.032656  0.766629  0.899351  1
  H  H44  1  0.967344  0.266629  0.100649  1
  H  H45  1  0.175807  0.624040  0.719433  1
  H  H46  1  0.824193  0.124040  0.280567  1
  O  O47  1  0.439856  0.346324  0.775007  1
  O  O48  1  0.560144  0.846324  0.224993  1
  O  O49  1  0.702426  0.105591  0.679659  1
  O  O50  1  0.297574  0.605591  0.320341  1
  O  O51  1  0.181204  0.282129  0.933465  1
  O  O52  1  0.818796  0.782129  0.066535  1
  O  O53  1  0.928431  0.354274  0.853072  1
  O  O54  1  0.071569  0.854274  0.146928  1
  O  O55  1  0.078379  0.919915  0.502562  1
  O  O56  1  0.921621  0.419915  0.497438  1
  O  O57  1  0.399529  0.716270  0.571331  1
  O  O58  1  0.600471  0.216270  0.428669  1
 
# Source:                            Grazulis_etal:NucleicAcidsRes.40.D420(2012)                                     
# Class:                             organic_molec_crystal                                                           
# Label:                             COD-1505220                                                                     
# Structure prediction method used:  NA                                                                              
# Number of atoms:                    58
# Number of atom types:                3
# Atom types:                         C  H  O
# Dielectric constant, electronic:   2.76438E+00
# Dielectric constant, ionic:        1.07627E+00
# Dielectric constant, total:        3.84065E+00
# Band gap at the GGA level (eV):    4.11950E+00
# Band gap at the HSE06 level (eV):  5.97850E+00
# Atomization energy (eV/atom):     -5.54633E+00
# Volume of the unit cell (A^3):     4.13273E+02
