# generated using pymatgen
data_H8C5O2
_symmetry_space_group_name_H-M   'P 1'
_cell_length_a   5.45976266
_cell_length_b   14.19747696
_cell_length_c   5.97904150
_cell_angle_alpha   90.00000000
_cell_angle_beta   111.78855449
_cell_angle_gamma   90.00000000
_symmetry_Int_Tables_number   1
_chemical_formula_structural   H8C5O2
_chemical_formula_sum   'H32 C20 O8'
_cell_volume   430.354622935
_cell_formula_units_Z   4
loop_
 _symmetry_equiv_pos_site_id
 _symmetry_equiv_pos_as_xyz
  1  'x, y, z'
loop_
 _atom_site_type_symbol
 _atom_site_label
 _atom_site_symmetry_multiplicity
 _atom_site_fract_x
 _atom_site_fract_y
 _atom_site_fract_z
 _atom_site_occupancy
  C  C1  1  0.729203  0.708450  0.410536  1
  C  C2  1  0.270797  0.208450  0.589464  1
  C  C3  1  0.712591  0.804983  0.533247  1
  C  C4  1  0.287409  0.304983  0.466753  1
  C  C5  1  0.767142  0.676373  0.820583  1
  C  C6  1  0.232858  0.176373  0.179417  1
  C  C7  1  0.807518  0.782508  0.804607  1
  C  C8  1  0.192482  0.282508  0.195393  1
  C  C9  1  0.849785  0.637621  0.619234  1
  C  C10  1  0.150215  0.137621  0.380766  1
  C  C11  1  0.422504  0.711517  0.272587  1
  C  C12  1  0.577496  0.211517  0.727413  1
  C  C13  1  0.678137  0.927323  0.935208  1
  C  C14  1  0.321863  0.427323  0.064792  1
  C  C15  1  0.795614  0.533328  0.557861  1
  C  C16  1  0.204386  0.033328  0.442139  1
  C  C17  1  0.404896  0.804254  0.401435  1
  C  C18  1  0.595104  0.304254  0.598565  1
  C  C19  1  0.496996  0.977062  0.032809  1
  C  C20  1  0.503004  0.477062  0.967191  1
  H  H21  1  0.897783  0.491742  0.718586  1
  H  H22  1  0.102217  0.991742  0.281414  1
  H  H23  1  0.297671  0.796731  0.522798  1
  H  H24  1  0.702329  0.296731  0.477202  1
  H  H25  1  0.321139  0.863068  0.281439  1
  H  H26  1  0.678861  0.363068  0.718561  1
  H  H27  1  0.476499  0.050227  0.975949  1
  H  H28  1  0.523501  0.550227  0.024051  1
  H  H29  1  0.586462  0.976582  0.229517  1
  H  H30  1  0.413538  0.476582  0.770483  1
  H  H31  1  0.304521  0.943079  0.974613  1
  H  H32  1  0.695479  0.443079  0.025387  1
  H  H33  1  0.237543  0.583110  0.216490  1
  H  H34  1  0.762457  0.083110  0.783510  1
  H  H35  1  0.192048  0.641057  0.574453  1
  H  H36  1  0.807952  0.141057  0.425547  1
  H  H37  1  0.838414  0.708778  0.291235  1
  H  H38  1  0.161586  0.208778  0.708765  1
  H  H39  1  0.815594  0.864870  0.494519  1
  H  H40  1  0.184406  0.364870  0.505481  1
  H  H41  1  0.885361  0.646827  0.994833  1
  H  H42  1  0.114639  0.146827  0.005167  1
  H  H43  1  0.560427  0.662151  0.784035  1
  H  H44  1  0.439573  0.162151  0.215965  1
  H  H45  1  0.012073  0.803354  0.898098  1
  H  H46  1  0.987927  0.303354  0.101902  1
  H  H47  1  0.367567  0.717707  0.078639  1
  H  H48  1  0.632433  0.217707  0.921361  1
  H  H49  1  0.872057  0.513183  0.419159  1
  H  H50  1  0.127943  0.013183  0.580841  1
  H  H51  1  0.585984  0.516845  0.494660  1
  H  H52  1  0.414016  0.016845  0.505340  1
  O  O53  1  0.648392  0.833098  0.924268  1
  O  O54  1  0.351608  0.333098  0.075732  1
  O  O55  1  0.842804  0.967507  0.870997  1
  O  O56  1  0.157196  0.467507  0.129003  1
  O  O57  1  0.265719  0.638520  0.322602  1
  O  O58  1  0.734281  0.138520  0.677398  1
  O  O59  1  0.136897  0.651083  0.712489  1
  O  O60  1  0.863103  0.151083  0.287511  1
 
# Source:                            Grazulis_etal:NucleicAcidsRes.40.D420(2012)                                     
# Class:                             organic_molec_crystal                                                           
# Label:                             COD-1507617                                                                     
# Structure prediction method used:  NA                                                                              
# Number of atoms:                    60
# Number of atom types:                3
# Atom types:                         C  H  O
# Dielectric constant, electronic:   2.70767E+00
# Dielectric constant, ionic:        5.35440E-01
# Dielectric constant, total:        3.24311E+00
# Band gap at the GGA level (eV):    4.06130E+00
# Band gap at the HSE06 level (eV):  5.91830E+00
# Atomization energy (eV/atom):     -5.45162E+00
# Volume of the unit cell (A^3):     4.30355E+02
