# generated using pymatgen
data_H16C8O5
_symmetry_space_group_name_H-M   'P 1'
_cell_length_a   5.50605638
_cell_length_b   7.47626137
_cell_length_c   9.74726090
_cell_angle_alpha   90.00000000
_cell_angle_beta   95.13002902
_cell_angle_gamma   90.00000000
_symmetry_Int_Tables_number   1
_chemical_formula_structural   H16C8O5
_chemical_formula_sum   'H32 C16 O10'
_cell_volume   399.635987642
_cell_formula_units_Z   2
loop_
 _symmetry_equiv_pos_site_id
 _symmetry_equiv_pos_as_xyz
  1  'x, y, z'
loop_
 _atom_site_type_symbol
 _atom_site_label
 _atom_site_symmetry_multiplicity
 _atom_site_fract_x
 _atom_site_fract_y
 _atom_site_fract_z
 _atom_site_occupancy
  C  C1  1  0.516323  0.090630  0.180948  1
  C  C2  1  0.483677  0.590630  0.819052  1
  C  C3  1  0.641318  0.027289  0.055289  1
  C  C4  1  0.358682  0.527289  0.944711  1
  C  C5  1  0.900402  0.964669  0.099759  1
  C  C6  1  0.099598  0.464669  0.900241  1
  C  C7  1  0.907699  0.823246  0.214406  1
  C  C8  1  0.092301  0.323246  0.785594  1
  C  C9  1  0.761241  0.890363  0.329818  1
  C  C10  1  0.238759  0.390363  0.670182  1
  C  C11  1  0.551838  0.313679  0.364820  1
  C  C12  1  0.448162  0.813679  0.635180  1
  C  C13  1  0.347585  0.447200  0.327497  1
  C  C14  1  0.652415  0.947200  0.672503  1
  C  C15  1  0.773483  0.392604  0.446910  1
  C  C16  1  0.226517  0.892604  0.553090  1
  H  H17  1  0.324913  0.124147  0.154914  1
  H  H18  1  0.675087  0.624147  0.845086  1
  H  H19  1  0.536619  0.917098  0.007307  1
  H  H20  1  0.463381  0.417098  0.992693  1
  H  H21  1  0.004200  0.081061  0.140026  1
  H  H22  1  0.995800  0.581061  0.859974  1
  H  H23  1  0.096876  0.798584  0.253826  1
  H  H24  1  0.903124  0.298584  0.746174  1
  H  H25  1  0.737270  0.783895  0.403478  1
  H  H26  1  0.262730  0.283895  0.596522  1
  H  H27  1  0.853786  0.003898  0.382044  1
  H  H28  1  0.146214  0.503898  0.617956  1
  H  H29  1  0.482728  0.200697  0.421407  1
  H  H30  1  0.517272  0.700697  0.578593  1
  H  H31  1  0.410379  0.555413  0.265299  1
  H  H32  1  0.589621  0.055413  0.734701  1
  H  H33  1  0.284643  0.504916  0.420857  1
  H  H34  1  0.715357  0.004916  0.579143  1
  H  H35  1  0.191668  0.383316  0.269841  1
  H  H36  1  0.808332  0.883316  0.730159  1
  H  H37  1  0.910569  0.288151  0.468656  1
  H  H38  1  0.089431  0.788151  0.531344  1
  H  H39  1  0.722802  0.446556  0.544374  1
  H  H40  1  0.277198  0.946556  0.455626  1
  H  H41  1  0.852652  0.497104  0.386867  1
  H  H42  1  0.147348  0.997104  0.613133  1
  H  H43  1  0.766675  0.256796  0.980411  1
  H  H44  1  0.233325  0.756796  0.019589  1
  H  H45  1  0.053868  0.992315  0.921645  1
  H  H46  1  0.946132  0.492315  0.078355  1
  H  H47  1  0.639249  0.667146  0.128436  1
  H  H48  1  0.360751  0.167146  0.871564  1
  O  O49  1  0.514263  0.942416  0.277423  1
  O  O50  1  0.485737  0.442416  0.722577  1
  O  O51  1  0.643239  0.162704  0.951078  1
  O  O52  1  0.356761  0.662704  0.048922  1
  O  O53  1  0.008860  0.891905  0.981956  1
  O  O54  1  0.991140  0.391905  0.018044  1
  O  O55  1  0.812890  0.652366  0.164636  1
  O  O56  1  0.187110  0.152366  0.835364  1
  O  O57  1  0.646849  0.240374  0.238542  1
  O  O58  1  0.353151  0.740374  0.761458  1
 
# Source:                            Grazulis_etal:NucleicAcidsRes.40.D420(2012)                                     
# Class:                             organic_molec_crystal                                                           
# Label:                             COD-1513142                                                                     
# Structure prediction method used:  NA                                                                              
# Number of atoms:                    58
# Number of atom types:                3
# Atom types:                         C  H  O
# Dielectric constant, electronic:   2.66887E+00
# Dielectric constant, ionic:        6.05045E-01
# Dielectric constant, total:        3.27391E+00
# Band gap at the GGA level (eV):    5.61650E+00
# Band gap at the HSE06 level (eV):  7.28500E+00
# Atomization energy (eV/atom):     -5.29025E+00
# Volume of the unit cell (A^3):     3.99636E+02
