# generated using pymatgen
data_H3C2O
_symmetry_space_group_name_H-M   'P 1'
_cell_length_a   7.20202620
_cell_length_b   5.15926900
_cell_length_c   9.93110851
_cell_angle_alpha   90.00000000
_cell_angle_beta   101.24834753
_cell_angle_gamma   90.00000000
_symmetry_Int_Tables_number   1
_chemical_formula_structural   H3C2O
_chemical_formula_sum   'H24 C16 O8'
_cell_volume   361.923703256
_cell_formula_units_Z   8
loop_
 _symmetry_equiv_pos_site_id
 _symmetry_equiv_pos_as_xyz
  1  'x, y, z'
loop_
 _atom_site_type_symbol
 _atom_site_label
 _atom_site_symmetry_multiplicity
 _atom_site_fract_x
 _atom_site_fract_y
 _atom_site_fract_z
 _atom_site_occupancy
  C  C1  1  0.109485  0.791768  0.392938  1
  C  C2  1  0.890515  0.291768  0.607062  1
  C  C3  1  0.209351  0.051544  0.400677  1
  C  C4  1  0.790649  0.551544  0.599323  1
  C  C5  1  0.104228  0.294351  0.183159  1
  C  C6  1  0.895772  0.794351  0.816841  1
  C  C7  1  0.288793  0.209443  0.141563  1
  C  C8  1  0.711207  0.709443  0.858437  1
  C  C9  1  0.314709  0.346518  0.011103  1
  C  C10  1  0.685291  0.846518  0.988897  1
  C  C11  1  0.407787  0.052027  0.368563  1
  C  C12  1  0.592213  0.552027  0.631437  1
  C  C13  1  0.446692  0.260288  0.270010  1
  C  C14  1  0.553308  0.760288  0.729990  1
  C  C15  1  0.649051  0.258543  0.246707  1
  C  C16  1  0.350949  0.758543  0.753293  1
  H  H17  1  0.417357  0.449996  0.311557  1
  H  H18  1  0.582643  0.949996  0.688443  1
  H  H19  1  0.745602  0.319515  0.339533  1
  H  H20  1  0.254398  0.819515  0.660467  1
  H  H21  1  0.666314  0.393408  0.165893  1
  H  H22  1  0.333686  0.893408  0.834107  1
  H  H23  1  0.692594  0.065350  0.220968  1
  H  H24  1  0.307406  0.565350  0.779032  1
  H  H25  1  0.177206  0.892120  0.044835  1
  H  H26  1  0.822794  0.392120  0.955165  1
  H  H27  1  0.979204  0.814276  0.432201  1
  H  H28  1  0.020796  0.314276  0.567799  1
  H  H29  1  0.199083  0.647335  0.454042  1
  H  H30  1  0.800917  0.147335  0.545958  1
  H  H31  1  0.073116  0.729699  0.286530  1
  H  H32  1  0.926884  0.229699  0.713470  1
  H  H33  1  0.223309  0.138194  0.502290  1
  H  H34  1  0.776691  0.638194  0.497710  1
  H  H35  1  0.437323  0.270345  0.975418  1
  H  H36  1  0.562677  0.770345  0.024582  1
  H  H37  1  0.336347  0.552446  0.031095  1
  H  H38  1  0.663653  0.052446  0.968905  1
  H  H39  1  0.189596  0.320094  0.930663  1
  H  H40  1  0.810404  0.820094  0.069337  1
  O  O41  1  0.078360  0.232169  0.310428  1
  O  O42  1  0.921640  0.732169  0.689572  1
  O  O43  1  0.279422  0.927021  0.124290  1
  O  O44  1  0.720578  0.427021  0.875710  1
  O  O45  1  0.983273  0.428283  0.110464  1
  O  O46  1  0.016727  0.928283  0.889536  1
  O  O47  1  0.522841  0.884467  0.417049  1
  O  O48  1  0.477159  0.384467  0.582951  1
 
# Source:                            Grazulis_etal:NucleicAcidsRes.40.D420(2012)                                     
# Class:                             organic_molec_crystal                                                           
# Label:                             COD-1513394                                                                     
# Structure prediction method used:  NA                                                                              
# Number of atoms:                    48
# Number of atom types:                3
# Atom types:                         C  H  O
# Dielectric constant, electronic:   2.70470E+00
# Dielectric constant, ionic:        6.15741E-01
# Dielectric constant, total:        3.32044E+00
# Band gap at the GGA level (eV):    3.78070E+00
# Band gap at the HSE06 level (eV):  5.61140E+00
# Atomization energy (eV/atom):     -5.55753E+00
# Volume of the unit cell (A^3):     3.61924E+02
