# generated using pymatgen
data_H6C4O
_symmetry_space_group_name_H-M   'P 1'
_cell_length_a   7.35088128
_cell_length_b   6.04575043
_cell_length_c   7.34064441
_cell_angle_alpha   90.00000000
_cell_angle_beta   99.84869393
_cell_angle_gamma   90.00000000
_symmetry_Int_Tables_number   1
_chemical_formula_structural   H6C4O
_chemical_formula_sum   'H24 C16 O4'
_cell_volume   321.422248575
_cell_formula_units_Z   4
loop_
 _symmetry_equiv_pos_site_id
 _symmetry_equiv_pos_as_xyz
  1  'x, y, z'
loop_
 _atom_site_type_symbol
 _atom_site_label
 _atom_site_symmetry_multiplicity
 _atom_site_fract_x
 _atom_site_fract_y
 _atom_site_fract_z
 _atom_site_occupancy
  C  C1  1  0.302224  0.853659  0.138691  1
  C  C2  1  0.697776  0.353659  0.861309  1
  C  C3  1  0.204443  0.711767  0.016801  1
  C  C4  1  0.795557  0.211767  0.983199  1
  C  C5  1  0.143740  0.759669  0.816060  1
  C  C6  1  0.856260  0.259669  0.183940  1
  C  C7  1  0.229968  0.971599  0.749255  1
  C  C8  1  0.770032  0.471599  0.250745  1
  C  C9  1  0.246798  0.153694  0.897179  1
  C  C10  1  0.753202  0.653694  0.102821  1
  C  C11  1  0.356385  0.082919  0.084171  1
  C  C12  1  0.643615  0.582919  0.915829  1
  C  C13  1  0.375582  0.771056  0.322669  1
  C  C14  1  0.624418  0.271056  0.677331  1
  C  C15  1  0.115721  0.056981  0.568930  1
  C  C16  1  0.884279  0.556981  0.431070  1
  H  H17  1  0.175254  0.548856  0.066615  1
  H  H18  1  0.824746  0.048856  0.933385  1
  H  H19  1  0.991976  0.770409  0.789123  1
  H  H20  1  0.008024  0.270409  0.210877  1
  H  H21  1  0.175295  0.615919  0.735217  1
  H  H22  1  0.824705  0.115919  0.264783  1
  H  H23  1  0.369266  0.931483  0.725343  1
  H  H24  1  0.630734  0.431483  0.274657  1
  H  H25  1  0.310898  0.299954  0.847878  1
  H  H26  1  0.689102  0.799954  0.152122  1
  H  H27  1  0.108304  0.203078  0.917547  1
  H  H28  1  0.891696  0.703078  0.082453  1
  H  H29  1  0.504380  0.083693  0.078382  1
  H  H30  1  0.495620  0.583693  0.921618  1
  H  H31  1  0.319716  0.613323  0.362878  1
  H  H32  1  0.680284  0.113323  0.637122  1
  H  H33  1  0.973248  0.087440  0.588073  1
  H  H34  1  0.026752  0.587440  0.411927  1
  H  H35  1  0.110099  0.938258  0.456092  1
  H  H36  1  0.889901  0.438258  0.543908  1
  H  H37  1  0.172981  0.210861  0.525445  1
  H  H38  1  0.827019  0.710861  0.474555  1
  H  H39  1  0.401769  0.228687  0.337597  1
  H  H40  1  0.598231  0.728687  0.662403  1
  O  O41  1  0.500671  0.866032  0.430751  1
  O  O42  1  0.499329  0.366032  0.569249  1
  O  O43  1  0.320026  0.248363  0.217601  1
  O  O44  1  0.679974  0.748363  0.782399  1
 
# Source:                            Grazulis_etal:NucleicAcidsRes.40.D420(2012)                                     
# Class:                             organic_molec_crystal                                                           
# Label:                             COD-1516752                                                                     
# Structure prediction method used:  NA                                                                              
# Number of atoms:                    44
# Number of atom types:                3
# Atom types:                         C  H  O
# Dielectric constant, electronic:   2.92992E+00
# Dielectric constant, ionic:        6.47732E-01
# Dielectric constant, total:        3.57766E+00
# Band gap at the GGA level (eV):    3.00980E+00
# Band gap at the HSE06 level (eV):  4.55950E+00
# Atomization energy (eV/atom):     -5.49089E+00
# Volume of the unit cell (A^3):     3.21422E+02
