# generated using pymatgen
data_H4C5O2
_symmetry_space_group_name_H-M   'P 1'
_cell_length_a   18.76066000
_cell_length_b   3.44793100
_cell_length_c   5.84355400
_cell_angle_alpha   90.00000000
_cell_angle_beta   90.00000000
_cell_angle_gamma   90.00000000
_symmetry_Int_Tables_number   1
_chemical_formula_structural   H4C5O2
_chemical_formula_sum   'H16 C20 O8'
_cell_volume   377.992985505
_cell_formula_units_Z   4
loop_
 _symmetry_equiv_pos_site_id
 _symmetry_equiv_pos_as_xyz
  1  'x, y, z'
loop_
 _atom_site_type_symbol
 _atom_site_label
 _atom_site_symmetry_multiplicity
 _atom_site_fract_x
 _atom_site_fract_y
 _atom_site_fract_z
 _atom_site_occupancy
  C  C1  1  0.389462  0.097179  0.275169  1
  C  C2  1  0.610538  0.902821  0.775169  1
  C  C3  1  0.889462  0.402821  0.275169  1
  C  C4  1  0.110538  0.597179  0.775169  1
  C  C5  1  0.438300  0.183730  0.094435  1
  C  C6  1  0.561700  0.816270  0.594435  1
  C  C7  1  0.938300  0.316270  0.094435  1
  C  C8  1  0.061700  0.683730  0.594435  1
  C  C9  1  0.415437  0.350713  0.895667  1
  C  C10  1  0.584563  0.649287  0.395667  1
  C  C11  1  0.915437  0.149287  0.895667  1
  C  C12  1  0.084563  0.850713  0.395667  1
  C  C13  1  0.342290  0.446464  0.863492  1
  C  C14  1  0.657710  0.553536  0.363492  1
  C  C15  1  0.842290  0.053536  0.863492  1
  C  C16  1  0.157710  0.946464  0.363492  1
  C  C17  1  0.296477  0.387748  0.038565  1
  C  C18  1  0.703523  0.612252  0.538565  1
  C  C19  1  0.796477  0.112252  0.038565  1
  C  C20  1  0.203523  0.887748  0.538565  1
  H  H21  1  0.493320  0.100865  0.116886  1
  H  H22  1  0.506680  0.899135  0.616886  1
  H  H23  1  0.993320  0.399135  0.116886  1
  H  H24  1  0.006680  0.600865  0.616886  1
  H  H25  1  0.452709  0.408596  0.758927  1
  H  H26  1  0.547291  0.591404  0.258927  1
  H  H27  1  0.952709  0.091404  0.758927  1
  H  H28  1  0.047291  0.908596  0.258927  1
  H  H29  1  0.324785  0.572469  0.704610  1
  H  H30  1  0.675215  0.427531  0.204610  1
  H  H31  1  0.824785  0.927531  0.704610  1
  H  H32  1  0.175215  0.072469  0.204610  1
  H  H33  1  0.240640  0.460858  0.039433  1
  H  H34  1  0.759360  0.539142  0.539433  1
  H  H35  1  0.740640  0.039142  0.039433  1
  H  H36  1  0.259360  0.960858  0.539433  1
  O  O37  1  0.400599  0.918056  0.454348  1
  O  O38  1  0.599401  0.081944  0.954348  1
  O  O39  1  0.900599  0.581944  0.454348  1
  O  O40  1  0.099401  0.418056  0.954348  1
  O  O41  1  0.317895  0.225734  0.241367  1
  O  O42  1  0.682105  0.774266  0.741367  1
  O  O43  1  0.817895  0.274266  0.241367  1
  O  O44  1  0.182105  0.725734  0.741367  1
 
# Source:                            Grazulis_etal:NucleicAcidsRes.40.D420(2012)                                     
# Class:                             organic_molec_crystal                                                           
# Label:                             COD-2010290                                                                     
# Structure prediction method used:  NA                                                                              
# Number of atoms:                    44
# Number of atom types:                3
# Atom types:                         C  H  O
# Dielectric constant, electronic:   3.10804E+00
# Dielectric constant, ionic:        1.07977E+00
# Dielectric constant, total:        4.18782E+00
# Band gap at the GGA level (eV):    2.79680E+00
# Band gap at the HSE06 level (eV):  3.83520E+00
# Atomization energy (eV/atom):     -6.13285E+00
# Volume of the unit cell (A^3):     3.77993E+02
