# generated using pymatgen
data_H14C10O3
_symmetry_space_group_name_H-M   'P 1'
_cell_length_a   6.19164713
_cell_length_b   7.20544465
_cell_length_c   9.36800283
_cell_angle_alpha   73.27510627
_cell_angle_beta   73.21395932
_cell_angle_gamma   78.90702688
_symmetry_Int_Tables_number   1
_chemical_formula_structural   H14C10O3
_chemical_formula_sum   'H28 C20 O6'
_cell_volume   380.47294487
_cell_formula_units_Z   2
loop_
 _symmetry_equiv_pos_site_id
 _symmetry_equiv_pos_as_xyz
  1  'x, y, z'
loop_
 _atom_site_type_symbol
 _atom_site_label
 _atom_site_symmetry_multiplicity
 _atom_site_fract_x
 _atom_site_fract_y
 _atom_site_fract_z
 _atom_site_occupancy
  C  C1  1  0.608778  0.628098  0.576455  1
  C  C2  1  0.391222  0.371902  0.423545  1
  C  C3  1  0.663298  0.427378  0.688535  1
  C  C4  1  0.336702  0.572622  0.311465  1
  C  C5  1  0.860979  0.435352  0.753952  1
  C  C6  1  0.139021  0.564648  0.246048  1
  C  C7  1  0.810743  0.606302  0.833139  1
  C  C8  1  0.189257  0.393698  0.166861  1
  C  C9  1  0.762123  0.805314  0.716371  1
  C  C10  1  0.237877  0.194686  0.283629  1
  C  C11  1  0.519331  0.908878  0.772018  1
  C  C12  1  0.480669  0.091122  0.227982  1
  C  C13  1  0.332867  0.788678  0.782385  1
  C  C14  1  0.667133  0.211322  0.217615  1
  C  C15  1  0.364178  0.725441  0.633770  1
  C  C16  1  0.635822  0.274559  0.366230  1
  C  C17  1  0.772199  0.767276  0.563711  1
  C  C18  1  0.227801  0.232724  0.436289  1
  C  C19  1  0.927420  0.242206  0.855943  1
  C  C20  1  0.072580  0.757794  0.144057  1
  H  H21  1  0.151180  0.106101  0.968846  1
  H  H22  1  0.848820  0.893899  0.031154  1
  H  H23  1  0.629827  0.610726  0.461241  1
  H  H24  1  0.370173  0.389274  0.538759  1
  H  H25  1  0.513468  0.388761  0.782565  1
  H  H26  1  0.486532  0.611239  0.217435  1
  H  H27  1  0.710628  0.311679  0.627777  1
  H  H28  1  0.289372  0.688321  0.372223  1
  H  H29  1  0.012005  0.462847  0.658376  1
  H  H30  1  0.987995  0.537153  0.341624  1
  H  H31  1  0.954183  0.610403  0.876927  1
  H  H32  1  0.045817  0.389597  0.123073  1
  H  H33  1  0.664669  0.582435  0.932790  1
  H  H34  1  0.335331  0.417565  0.067210  1
  H  H35  1  0.886751  0.902957  0.698129  1
  H  H36  1  0.113249  0.097043  0.301871  1
  H  H37  1  0.506262  0.935276  0.883334  1
  H  H38  1  0.493738  0.064724  0.116666  1
  H  H39  1  0.497524  0.052226  0.692860  1
  H  H40  1  0.502476  0.947774  0.307140  1
  H  H41  1  0.330738  0.658947  0.878585  1
  H  H42  1  0.669262  0.341053  0.121415  1
  H  H43  1  0.167248  0.874756  0.806745  1
  H  H44  1  0.832752  0.125244  0.193255  1
  H  H45  1  0.323538  0.851559  0.544274  1
  H  H46  1  0.676462  0.148441  0.455726  1
  H  H47  1  0.245703  0.621550  0.652315  1
  H  H48  1  0.754297  0.378450  0.347685  1
  O  O49  1  0.895472  0.844917  0.439457  1
  O  O50  1  0.104528  0.155083  0.560543  1
  O  O51  1  0.812385  0.103741  0.901329  1
  O  O52  1  0.187615  0.896259  0.098671  1
  O  O53  1  0.122346  0.235482  0.894691  1
  O  O54  1  0.877654  0.764518  0.105309  1
 
# Source:                            Grazulis_etal:NucleicAcidsRes.40.D420(2012)                                     
# Class:                             organic_molec_crystal                                                           
# Label:                             COD-2013148                                                                     
# Structure prediction method used:  NA                                                                              
# Number of atoms:                    54
# Number of atom types:                3
# Atom types:                         C  H  O
# Dielectric constant, electronic:   2.82811E+00
# Dielectric constant, ionic:        4.17249E-01
# Dielectric constant, total:        3.24536E+00
# Band gap at the GGA level (eV):    3.39480E+00
# Band gap at the HSE06 level (eV):  5.19750E+00
# Atomization energy (eV/atom):     -5.60341E+00
# Volume of the unit cell (A^3):     3.80473E+02
