# generated using pymatgen
data_H7(CO)3
_symmetry_space_group_name_H-M   'P 1'
_cell_length_a   4.70239060
_cell_length_b   17.52887093
_cell_length_c   4.88276200
_cell_angle_alpha   90.00000000
_cell_angle_beta   117.94048111
_cell_angle_gamma   90.00000000
_symmetry_Int_Tables_number   1
_chemical_formula_structural   H7(CO)3
_chemical_formula_sum   'H28 C12 O12'
_cell_volume   355.559841971
_cell_formula_units_Z   4
loop_
 _symmetry_equiv_pos_site_id
 _symmetry_equiv_pos_as_xyz
  1  'x, y, z'
loop_
 _atom_site_type_symbol
 _atom_site_label
 _atom_site_symmetry_multiplicity
 _atom_site_fract_x
 _atom_site_fract_y
 _atom_site_fract_z
 _atom_site_occupancy
  C  C1  1  0.609199  0.469423  0.346794  1
  C  C2  1  0.390801  0.969423  0.653206  1
  C  C3  1  0.594073  0.394972  0.181157  1
  C  C4  1  0.405927  0.894972  0.818843  1
  C  C5  1  0.627482  0.325831  0.388138  1
  C  C6  1  0.372518  0.825831  0.611862  1
  C  C7  1  0.601356  0.250171  0.220369  1
  C  C8  1  0.398644  0.750171  0.779631  1
  C  C9  1  0.547921  0.180956  0.383131  1
  C  C10  1  0.452079  0.680956  0.616869  1
  C  C11  1  0.544846  0.107338  0.216857  1
  C  C12  1  0.455154  0.607338  0.783143  1
  H  H13  1  0.644084  0.516750  0.221495  1
  H  H14  1  0.355916  0.016750  0.778505  1
  H  H15  1  0.381697  0.477693  0.354224  1
  H  H16  1  0.618303  0.977693  0.645776  1
  H  H17  1  0.365201  0.392948  0.967353  1
  H  H18  1  0.634799  0.892948  0.032647  1
  H  H19  1  0.862469  0.328069  0.593861  1
  H  H20  1  0.137531  0.828069  0.406139  1
  H  H21  1  0.822493  0.242526  0.201373  1
  H  H22  1  0.177507  0.742526  0.798627  1
  H  H23  1  0.314756  0.186528  0.380151  1
  H  H24  1  0.685244  0.686528  0.619849  1
  H  H25  1  0.534636  0.058774  0.349966  1
  H  H26  1  0.465364  0.558774  0.650034  1
  H  H27  1  0.334227  0.106317  0.987777  1
  H  H28  1  0.665773  0.606317  0.012223  1
  H  H29  1  0.982217  0.518010  0.717823  1
  H  H30  1  0.017783  0.018010  0.282177  1
  H  H31  1  0.823621  0.421414  0.924980  1
  H  H32  1  0.176379  0.921414  0.075020  1
  H  H33  1  0.185668  0.352424  0.336199  1
  H  H34  1  0.814332  0.852424  0.663801  1
  H  H35  1  0.385230  0.278762  0.765138  1
  H  H36  1  0.614770  0.778762  0.234862  1
  H  H37  1  0.990456  0.203653  0.756516  1
  H  H38  1  0.009544  0.703653  0.243484  1
  H  H39  1  0.808631  0.124711  0.996245  1
  H  H40  1  0.191369  0.624711  0.003755  1
  O  O41  1  0.394559  0.331676  0.500198  1
  O  O42  1  0.605441  0.831676  0.499802  1
  O  O43  1  0.330302  0.250463  0.911811  1
  O  O44  1  0.669698  0.750463  0.088189  1
  O  O45  1  0.786610  0.176172  0.705907  1
  O  O46  1  0.213390  0.676172  0.294093  1
  O  O47  1  0.837492  0.098767  0.189295  1
  O  O48  1  0.162508  0.598767  0.810705  1
  O  O49  1  0.876638  0.466948  0.657677  1
  O  O50  1  0.123362  0.966948  0.342323  1
  O  O51  1  0.854816  0.389045  0.104848  1
  O  O52  1  0.145184  0.889045  0.895152  1
 
# Source:                            Grazulis_etal:NucleicAcidsRes.40.D420(2012)                                     
# Class:                             organic_molec_crystal                                                           
# Label:                             COD-2013642                                                                     
# Structure prediction method used:  NA                                                                              
# Number of atoms:                    52
# Number of atom types:                3
# Atom types:                         C  H  O
# Dielectric constant, electronic:   2.66485E+00
# Dielectric constant, ionic:        1.10372E+00
# Dielectric constant, total:        3.76857E+00
# Band gap at the GGA level (eV):    5.62570E+00
# Band gap at the HSE06 level (eV):  7.39400E+00
# Atomization energy (eV/atom):     -5.24763E+00
# Volume of the unit cell (A^3):     3.55560E+02
