# generated using pymatgen
data_H14C6O5
_symmetry_space_group_name_H-M   'P 1'
_cell_length_a   6.38865289
_cell_length_b   6.38865289
_cell_length_c   4.84538207
_cell_angle_alpha   107.18368346
_cell_angle_beta   107.18368346
_cell_angle_gamma   67.60952793
_symmetry_Int_Tables_number   1
_chemical_formula_structural   H14C6O5
_chemical_formula_sum   'H14 C6 O5'
_cell_volume   170.906337144
_cell_formula_units_Z   1
loop_
 _symmetry_equiv_pos_site_id
 _symmetry_equiv_pos_as_xyz
  1  'x, y, z'
loop_
 _atom_site_type_symbol
 _atom_site_label
 _atom_site_symmetry_multiplicity
 _atom_site_fract_x
 _atom_site_fract_y
 _atom_site_fract_z
 _atom_site_occupancy
  C  C1  1  0.057434  0.098222  0.556180  1
  C  C2  1  0.901778  0.942566  0.443820  1
  C  C3  1  0.936396  0.340255  0.716635  1
  C  C4  1  0.659745  0.063604  0.283365  1
  C  C5  1  0.699750  0.451346  0.532798  1
  C  C6  1  0.548654  0.300250  0.467202  1
  H  H7  1  0.217854  0.014601  0.699609  1
  H  H8  1  0.985399  0.782146  0.300391  1
  H  H9  1  0.047078  0.446676  0.765935  1
  H  H10  1  0.553324  0.952922  0.234065  1
  H  H11  1  0.911580  0.329710  0.925190  1
  H  H12  1  0.670290  0.088420  0.074810  1
  H  H13  1  0.718713  0.470088  0.323807  1
  H  H14  1  0.529912  0.281287  0.676193  1
  H  H15  1  0.198821  0.969395  0.200099  1
  H  H16  1  0.030605  0.801179  0.799901  1
  H  H17  1  0.677437  0.778369  0.706647  1
  H  H18  1  0.221631  0.322563  0.293353  1
  H  H19  1  0.422421  0.674938  0.898499  1
  H  H20  1  0.325062  0.577579  0.101501  1
  O  O21  1  0.296934  0.703066  0.000000  1
  O  O22  1  0.114716  0.125630  0.302669  1
  O  O23  1  0.874370  0.885284  0.697331  1
  O  O24  1  0.585224  0.678988  0.691933  1
  O  O25  1  0.321012  0.414776  0.308067  1
 
# Source:                            Grazulis_etal:NucleicAcidsRes.40.D420(2012)                                     
# Class:                             organic_molec_crystal                                                           
# Label:                             COD-2014866                                                                     
# Structure prediction method used:  NA                                                                              
# Number of atoms:                    25
# Number of atom types:                3
# Atom types:                         C  H  O
# Dielectric constant, electronic:   2.64445E+00
# Dielectric constant, ionic:        7.33638E-01
# Dielectric constant, total:        3.37809E+00
# Band gap at the GGA level (eV):    5.89240E+00
# Band gap at the HSE06 level (eV):  7.60920E+00
# Atomization energy (eV/atom):     -5.24313E+00
# Volume of the unit cell (A^3):     1.70906E+02
