# generated using pymatgen
data_H10C5O2
_symmetry_space_group_name_H-M   'P 1'
_cell_length_a   4.76114572
_cell_length_b   9.33116042
_cell_length_c   11.13701282
_cell_angle_alpha   90.00000000
_cell_angle_beta   98.44591562
_cell_angle_gamma   90.00000000
_symmetry_Int_Tables_number   1
_chemical_formula_structural   H10C5O2
_chemical_formula_sum   'H40 C20 O8'
_cell_volume   489.418268336
_cell_formula_units_Z   4
loop_
 _symmetry_equiv_pos_site_id
 _symmetry_equiv_pos_as_xyz
  1  'x, y, z'
loop_
 _atom_site_type_symbol
 _atom_site_label
 _atom_site_symmetry_multiplicity
 _atom_site_fract_x
 _atom_site_fract_y
 _atom_site_fract_z
 _atom_site_occupancy
  C  C1  1  0.714275  0.862904  0.012396  1
  C  C2  1  0.285725  0.137096  0.987604  1
  C  C3  1  0.285725  0.362904  0.487604  1
  C  C4  1  0.714275  0.637096  0.512396  1
  C  C5  1  0.939010  0.745637  0.016154  1
  C  C6  1  0.060990  0.254363  0.983846  1
  C  C7  1  0.060990  0.245637  0.483846  1
  C  C8  1  0.939010  0.754363  0.516154  1
  C  C9  1  0.031141  0.717581  0.894261  1
  C  C10  1  0.968859  0.282419  0.105739  1
  C  C11  1  0.968859  0.217581  0.605739  1
  C  C12  1  0.031141  0.782419  0.394261  1
  C  C13  1  0.339359  0.578083  0.785719  1
  C  C14  1  0.660641  0.421917  0.214281  1
  C  C15  1  0.660641  0.078083  0.714281  1
  C  C16  1  0.339359  0.921917  0.285719  1
  C  C17  1  0.565070  0.464681  0.814887  1
  C  C18  1  0.434930  0.535319  0.185113  1
  C  C19  1  0.434930  0.964681  0.685113  1
  C  C20  1  0.565070  0.035319  0.314887  1
  H  H21  1  0.655381  0.876528  0.102634  1
  H  H22  1  0.344619  0.123472  0.897366  1
  H  H23  1  0.344619  0.376528  0.397366  1
  H  H24  1  0.655381  0.623472  0.602634  1
  H  H25  1  0.524902  0.835742  0.949122  1
  H  H26  1  0.475098  0.164258  0.050878  1
  H  H27  1  0.475098  0.335742  0.550878  1
  H  H28  1  0.524902  0.664258  0.449122  1
  H  H29  1  0.792281  0.965425  0.983722  1
  H  H30  1  0.207719  0.034575  0.016278  1
  H  H31  1  0.207719  0.465425  0.516278  1
  H  H32  1  0.792281  0.534575  0.483722  1
  H  H33  1  0.127746  0.772594  0.080293  1
  H  H34  1  0.872254  0.227406  0.919707  1
  H  H35  1  0.872254  0.272594  0.419707  1
  H  H36  1  0.127746  0.727406  0.580293  1
  H  H37  1  0.863047  0.644650  0.049333  1
  H  H38  1  0.136953  0.355350  0.950667  1
  H  H39  1  0.136953  0.144650  0.450667  1
  H  H40  1  0.863047  0.855350  0.549333  1
  H  H41  1  0.424512  0.677486  0.754642  1
  H  H42  1  0.575488  0.322514  0.245358  1
  H  H43  1  0.575488  0.177486  0.745358  1
  H  H44  1  0.424512  0.822514  0.254642  1
  H  H45  1  0.162304  0.540714  0.719860  1
  H  H46  1  0.837696  0.459286  0.280140  1
  H  H47  1  0.837696  0.040714  0.780140  1
  H  H48  1  0.162304  0.959286  0.219860  1
  H  H49  1  0.670142  0.444610  0.735798  1
  H  H50  1  0.329858  0.555390  0.264202  1
  H  H51  1  0.329858  0.944610  0.764202  1
  H  H52  1  0.670142  0.055390  0.235798  1
  H  H53  1  0.471538  0.364568  0.839636  1
  H  H54  1  0.528462  0.635432  0.160364  1
  H  H55  1  0.528462  0.864568  0.660364  1
  H  H56  1  0.471538  0.135432  0.339636  1
  H  H57  1  0.724361  0.497644  0.889845  1
  H  H58  1  0.275639  0.502356  0.110155  1
  H  H59  1  0.275639  0.997644  0.610155  1
  H  H60  1  0.724361  0.002356  0.389845  1
  O  O61  1  0.944252  0.781702  0.799706  1
  O  O62  1  0.055748  0.218298  0.200294  1
  O  O63  1  0.055748  0.281702  0.700294  1
  O  O64  1  0.944252  0.718298  0.299706  1
  O  O65  1  0.227999  0.610834  0.900620  1
  O  O66  1  0.772001  0.389166  0.099380  1
  O  O67  1  0.772001  0.110834  0.599380  1
  O  O68  1  0.227999  0.889166  0.400620  1
 
# Source:                            Grazulis_etal:NucleicAcidsRes.40.D420(2012)                                     
# Class:                             organic_molec_crystal                                                           
# Label:                             COD-2102678                                                                     
# Structure prediction method used:  NA                                                                              
# Number of atoms:                    68
# Number of atom types:                3
# Atom types:                         C  H  O
# Dielectric constant, electronic:   2.56981E+00
# Dielectric constant, ionic:        3.68012E-01
# Dielectric constant, total:        2.93782E+00
# Band gap at the GGA level (eV):    4.95680E+00
# Band gap at the HSE06 level (eV):  6.96440E+00
# Atomization energy (eV/atom):     -5.28704E+00
# Volume of the unit cell (A^3):     4.89418E+02
