# generated using pymatgen
data_H16(C3O)3
_symmetry_space_group_name_H-M   'P 1'
_cell_length_a   5.72221202
_cell_length_b   8.05737827
_cell_length_c   8.90632836
_cell_angle_alpha   94.09169475
_cell_angle_beta   108.41985931
_cell_angle_gamma   99.76944247
_symmetry_Int_Tables_number   1
_chemical_formula_structural   H16(C3O)3
_chemical_formula_sum   'H32 C18 O6'
_cell_volume   380.50256794
_cell_formula_units_Z   2
loop_
 _symmetry_equiv_pos_site_id
 _symmetry_equiv_pos_as_xyz
  1  'x, y, z'
loop_
 _atom_site_type_symbol
 _atom_site_label
 _atom_site_symmetry_multiplicity
 _atom_site_fract_x
 _atom_site_fract_y
 _atom_site_fract_z
 _atom_site_occupancy
  C  C1  1  0.658792  0.729950  0.876515  1
  C  C2  1  0.341208  0.270050  0.123485  1
  C  C3  1  0.562937  0.574260  0.745256  1
  C  C4  1  0.437063  0.425740  0.254744  1
  C  C5  1  0.305603  0.567213  0.618899  1
  C  C6  1  0.694397  0.432787  0.381101  1
  C  C7  1  0.298449  0.702481  0.503080  1
  C  C8  1  0.701551  0.297519  0.496920  1
  C  C9  1  0.186879  0.856262  0.538651  1
  C  C10  1  0.813121  0.143738  0.461349  1
  C  C11  1  0.266222  0.936169  0.713432  1
  C  C12  1  0.733778  0.063831  0.286568  1
  C  C13  1  0.545602  0.016658  0.794080  1
  C  C14  1  0.454398  0.983342  0.205920  1
  C  C15  1  0.732479  0.897461  0.809404  1
  C  C16  1  0.267521  0.102539  0.190596  1
  C  C17  1  0.882624  0.699138  0.008676  1
  C  C18  1  0.117376  0.300862  0.991324  1
  H  H19  1  0.980965  0.815774  0.494232  1
  H  H20  1  0.019035  0.184226  0.505768  1
  H  H21  1  0.207560  0.841549  0.783388  1
  H  H22  1  0.792440  0.158451  0.216612  1
  H  H23  1  0.161081  0.036350  0.719025  1
  H  H24  1  0.838919  0.963650  0.280975  1
  H  H25  1  0.569781  0.073948  0.914701  1
  H  H26  1  0.430219  0.926052  0.085299  1
  H  H27  1  0.598858  0.121184  0.731887  1
  H  H28  1  0.401142  0.878816  0.268113  1
  H  H29  1  0.917324  0.966797  0.886530  1
  H  H30  1  0.082676  0.033203  0.113470  1
  H  H31  1  0.757341  0.865109  0.695162  1
  H  H32  1  0.242659  0.134891  0.304838  1
  H  H33  1  0.385746  0.373955  0.823834  1
  H  H34  1  0.614254  0.626045  0.176166  1
  H  H35  1  0.211039  0.640906  0.050692  1
  H  H36  1  0.788961  0.359094  0.949308  1
  H  H37  1  0.513163  0.740902  0.929346  1
  H  H38  1  0.486837  0.259098  0.070654  1
  H  H39  1  0.705448  0.573266  0.687661  1
  H  H40  1  0.294552  0.426734  0.312339  1
  H  H41  1  0.166009  0.572846  0.678784  1
  H  H42  1  0.833991  0.427154  0.321216  1
  H  H43  1  0.253834  0.440219  0.550416  1
  H  H44  1  0.746166  0.559781  0.449584  1
  H  H45  1  0.486846  0.745288  0.496884  1
  H  H46  1  0.513154  0.254712  0.503116  1
  H  H47  1  0.184138  0.643107  0.382524  1
  H  H48  1  0.815862  0.356893  0.617476  1
  H  H49  1  0.230277  0.953924  0.466514  1
  H  H50  1  0.769723  0.046076  0.533486  1
  O  O51  1  0.894367  0.699556  0.150146  1
  O  O52  1  0.105633  0.300444  0.849854  1
  O  O53  1  0.072583  0.670836  0.959291  1
  O  O54  1  0.927417  0.329164  0.040709  1
  O  O55  1  0.556259  0.417781  0.819676  1
  O  O56  1  0.443741  0.582219  0.180324  1
 
# Source:                            Grazulis_etal:NucleicAcidsRes.40.D420(2012)                                     
# Class:                             organic_molec_crystal                                                           
# Label:                             COD-2103429                                                                     
# Structure prediction method used:  NA                                                                              
# Number of atoms:                    56
# Number of atom types:                3
# Atom types:                         C  H  O
# Dielectric constant, electronic:   2.75650E+00
# Dielectric constant, ionic:        4.68540E-01
# Dielectric constant, total:        3.22504E+00
# Band gap at the GGA level (eV):    4.75420E+00
# Band gap at the HSE06 level (eV):  6.58670E+00
# Atomization energy (eV/atom):     -5.37163E+00
# Volume of the unit cell (A^3):     3.80503E+02
