# generated using pymatgen
data_H10C9O2
_symmetry_space_group_name_H-M   'P 1'
_cell_length_a   7.33748784
_cell_length_b   7.49786145
_cell_length_c   7.70597288
_cell_angle_alpha   114.94419976
_cell_angle_beta   113.40771772
_cell_angle_gamma   97.73696498
_symmetry_Int_Tables_number   1
_chemical_formula_structural   H10C9O2
_chemical_formula_sum   'H20 C18 O4'
_cell_volume   328.6837066
_cell_formula_units_Z   2
loop_
 _symmetry_equiv_pos_site_id
 _symmetry_equiv_pos_as_xyz
  1  'x, y, z'
loop_
 _atom_site_type_symbol
 _atom_site_label
 _atom_site_symmetry_multiplicity
 _atom_site_fract_x
 _atom_site_fract_y
 _atom_site_fract_z
 _atom_site_occupancy
  C  C1  1  0.388948  0.457749  0.722801  1
  C  C2  1  0.611052  0.542251  0.277199  1
  C  C3  1  0.590489  0.491680  0.742758  1
  C  C4  1  0.409511  0.508320  0.257242  1
  C  C5  1  0.698200  0.356028  0.762885  1
  C  C6  1  0.301800  0.643972  0.237115  1
  C  C7  1  0.603421  0.179545  0.760637  1
  C  C8  1  0.396579  0.820455  0.239363  1
  C  C9  1  0.399000  0.141366  0.734061  1
  C  C10  1  0.601000  0.858634  0.265939  1
  C  C11  1  0.292215  0.279753  0.717213  1
  C  C12  1  0.707785  0.720247  0.282787  1
  C  C13  1  0.722432  0.035521  0.788520  1
  C  C14  1  0.277567  0.964479  0.211480  1
  C  C15  1  0.930544  0.208506  0.187664  1
  C  C16  1  0.069456  0.791494  0.812336  1
  C  C17  1  0.704773  0.377424  0.284778  1
  C  C18  1  0.295227  0.622576  0.715222  1
  H  H19  1  0.663819  0.631291  0.749819  1
  H  H20  1  0.336181  0.368709  0.250181  1
  H  H21  1  0.857256  0.389430  0.784923  1
  H  H22  1  0.142744  0.610570  0.215077  1
  H  H23  1  0.325187  0.005769  0.733076  1
  H  H24  1  0.674813  0.994231  0.266924  1
  H  H25  1  0.137399  0.251883  0.705394  1
  H  H26  1  0.862601  0.748117  0.294606  1
  H  H27  1  0.629861  0.872764  0.651279  1
  H  H28  1  0.370139  0.127236  0.348721  1
  H  H29  1  0.875167  0.087103  0.797894  1
  H  H30  1  0.124833  0.912897  0.202106  1
  H  H31  1  0.961616  0.170463  0.316773  1
  H  H32  1  0.038384  0.829537  0.683227  1
  H  H33  1  0.070651  0.242193  0.172883  1
  H  H34  1  0.929349  0.757807  0.827117  1
  H  H35  1  0.766304  0.392362  0.447322  1
  H  H36  1  0.233696  0.607638  0.552678  1
  H  H37  1  0.579391  0.221906  0.159294  1
  H  H38  1  0.420609  0.778094  0.840706  1
  O  O39  1  0.878909  0.394244  0.239842  1
  O  O40  1  0.121091  0.605756  0.760158  1
  O  O41  1  0.763674  0.024157  0.985872  1
  O  O42  1  0.236326  0.975843  0.014128  1
 
# Source:                            Grazulis_etal:NucleicAcidsRes.40.D420(2012)                                     
# Class:                             organic_molec_crystal                                                           
# Label:                             COD-2104593                                                                     
# Structure prediction method used:  NA                                                                              
# Number of atoms:                    42
# Number of atom types:                3
# Atom types:                         C  H  O
# Dielectric constant, electronic:   3.01800E+00
# Dielectric constant, ionic:        3.16393E-01
# Dielectric constant, total:        3.33439E+00
# Band gap at the GGA level (eV):    3.72620E+00
# Band gap at the HSE06 level (eV):  4.85490E+00
# Atomization energy (eV/atom):     -5.77988E+00
# Volume of the unit cell (A^3):     3.28684E+02
