# generated using pymatgen
data_H3C2O
_symmetry_space_group_name_H-M   'P 1'
_cell_length_a   7.86996941
_cell_length_b   5.45812764
_cell_length_c   8.81389711
_cell_angle_alpha   90.00000000
_cell_angle_beta   116.14200802
_cell_angle_gamma   90.00000000
_symmetry_Int_Tables_number   1
_chemical_formula_structural   H3C2O
_chemical_formula_sum   'H24 C16 O8'
_cell_volume   339.874237612
_cell_formula_units_Z   8
loop_
 _symmetry_equiv_pos_site_id
 _symmetry_equiv_pos_as_xyz
  1  'x, y, z'
loop_
 _atom_site_type_symbol
 _atom_site_label
 _atom_site_symmetry_multiplicity
 _atom_site_fract_x
 _atom_site_fract_y
 _atom_site_fract_z
 _atom_site_occupancy
  C  C1  1  0.021306  0.383559  0.132326  1
  C  C2  1  0.978694  0.883559  0.867674  1
  C  C3  1  0.237577  0.370148  0.210280  1
  C  C4  1  0.762423  0.870148  0.789720  1
  C  C5  1  0.448031  0.067948  0.220021  1
  C  C6  1  0.551969  0.567948  0.779979  1
  C  C7  1  0.283030  0.200719  0.367108  1
  C  C8  1  0.716970  0.700719  0.632892  1
  C  C9  1  0.083835  0.156387  0.351454  1
  C  C10  1  0.916165  0.656387  0.648546  1
  C  C11  1  0.974159  0.547696  0.249502  1
  C  C12  1  0.025841  0.047696  0.750498  1
  C  C13  1  0.631781  0.206584  0.319129  1
  C  C14  1  0.368219  0.706584  0.680871  1
  C  C15  1  0.474692  0.852414  0.124776  1
  C  C16  1  0.525308  0.352414  0.875224  1
  H  H17  1  0.948601  0.419721  0.998228  1
  H  H18  1  0.051399  0.919721  0.001772  1
  H  H19  1  0.303340  0.550376  0.242972  1
  H  H20  1  0.696660  0.050376  0.757028  1
  H  H21  1  0.379674  0.280525  0.487436  1
  H  H22  1  0.620326  0.780525  0.512564  1
  H  H23  1  0.059749  0.007666  0.420889  1
  H  H24  1  0.940251  0.507666  0.579111  1
  H  H25  1  0.061409  0.711385  0.286462  1
  H  H26  1  0.938591  0.211385  0.713538  1
  H  H27  1  0.825093  0.595600  0.198778  1
  H  H28  1  0.174907  0.095600  0.801222  1
  H  H29  1  0.612077  0.357256  0.391016  1
  H  H30  1  0.387923  0.857256  0.608984  1
  H  H31  1  0.680907  0.278746  0.230547  1
  H  H32  1  0.319093  0.778746  0.769453  1
  H  H33  1  0.740386  0.084478  0.406085  1
  H  H34  1  0.259614  0.584478  0.593915  1
  H  H35  1  0.341449  0.762019  0.045364  1
  H  H36  1  0.658551  0.262019  0.954636  1
  H  H37  1  0.568615  0.719624  0.216268  1
  H  H38  1  0.431385  0.219624  0.783732  1
  H  H39  1  0.543645  0.911997  0.047575  1
  H  H40  1  0.456355  0.411997  0.952425  1
  O  O41  1  0.303932  0.235126  0.105561  1
  O  O42  1  0.696068  0.735126  0.894439  1
  O  O43  1  0.365100  0.982603  0.331071  1
  O  O44  1  0.634900  0.482603  0.668929  1
  O  O45  1  0.026883  0.387002  0.399442  1
  O  O46  1  0.973117  0.887002  0.600558  1
  O  O47  1  0.967609  0.139522  0.172477  1
  O  O48  1  0.032391  0.639522  0.827523  1
 
# Source:                            Grazulis_etal:NucleicAcidsRes.40.D420(2012)                                     
# Class:                             organic_molec_crystal                                                           
# Label:                             COD-2201223                                                                     
# Structure prediction method used:  NA                                                                              
# Number of atoms:                    48
# Number of atom types:                3
# Atom types:                         C  H  O
# Dielectric constant, electronic:   2.70375E+00
# Dielectric constant, ionic:        4.26290E-01
# Dielectric constant, total:        3.13004E+00
# Band gap at the GGA level (eV):    6.02120E+00
# Band gap at the HSE06 level (eV):  7.86790E+00
# Atomization energy (eV/atom):     -5.48588E+00
# Volume of the unit cell (A^3):     3.39874E+02
