# generated using pymatgen
data_H5C5O2
_symmetry_space_group_name_H-M   'P 1'
_cell_length_a   6.55707363
_cell_length_b   7.81524787
_cell_length_c   8.10994182
_cell_angle_alpha   79.70952184
_cell_angle_beta   66.99166282
_cell_angle_gamma   88.27553084
_symmetry_Int_Tables_number   1
_chemical_formula_structural   H5C5O2
_chemical_formula_sum   'H20 C20 O8'
_cell_volume   376.01827776
_cell_formula_units_Z   4
loop_
 _symmetry_equiv_pos_site_id
 _symmetry_equiv_pos_as_xyz
  1  'x, y, z'
loop_
 _atom_site_type_symbol
 _atom_site_label
 _atom_site_symmetry_multiplicity
 _atom_site_fract_x
 _atom_site_fract_y
 _atom_site_fract_z
 _atom_site_occupancy
  C  C1  1  0.133185  0.075494  0.818069  1
  C  C2  1  0.866815  0.924506  0.181931  1
  C  C3  1  0.997737  0.178640  0.937610  1
  C  C4  1  0.002263  0.821360  0.062390  1
  C  C5  1  0.373888  0.921318  0.180428  1
  C  C6  1  0.626112  0.078682  0.819572  1
  C  C7  1  0.135483  0.894394  0.881894  1
  C  C8  1  0.864517  0.105606  0.118106  1
  C  C9  1  0.283988  0.783123  0.764399  1
  C  C10  1  0.716012  0.216877  0.235601  1
  C  C11  1  0.203321  0.378499  0.192393  1
  C  C12  1  0.796679  0.621501  0.807607  1
  C  C13  1  0.275281  0.329985  0.583070  1
  C  C14  1  0.724719  0.670015  0.416930  1
  C  C15  1  0.360694  0.102637  0.122607  1
  C  C16  1  0.639306  0.897363  0.877393  1
  C  C17  1  0.486396  0.178720  0.942429  1
  C  C18  1  0.513604  0.821280  0.057571  1
  C  C19  1  0.244238  0.837091  0.369129  1
  C  C20  1  0.755762  0.162909  0.630871  1
  H  H21  1  0.989440  0.316740  0.894676  1
  H  H22  1  0.010560  0.683260  0.105324  1
  H  H23  1  0.395058  0.848780  0.628254  1
  H  H24  1  0.604942  0.151220  0.371746  1
  H  H25  1  0.077251  0.418402  0.310765  1
  H  H26  1  0.922749  0.581598  0.689235  1
  H  H27  1  0.154905  0.403229  0.076721  1
  H  H28  1  0.845095  0.596771  0.923279  1
  H  H29  1  0.363174  0.443165  0.158096  1
  H  H30  1  0.636826  0.556835  0.841904  1
  H  H31  1  0.395077  0.357970  0.443964  1
  H  H32  1  0.604923  0.642030  0.556036  1
  H  H33  1  0.327636  0.394536  0.669167  1
  H  H34  1  0.672364  0.605464  0.330833  1
  H  H35  1  0.112761  0.370375  0.589857  1
  H  H36  1  0.887239  0.629625  0.410143  1
  H  H37  1  0.479757  0.315687  0.892602  1
  H  H38  1  0.520243  0.684313  0.107398  1
  H  H39  1  0.150239  0.922641  0.464216  1
  H  H40  1  0.849761  0.077359  0.535784  1
  O  O41  1  0.267804  0.139541  0.640567  1
  O  O42  1  0.732196  0.860459  0.359433  1
  O  O43  1  0.291175  0.623945  0.813343  1
  O  O44  1  0.708825  0.376055  0.186657  1
  O  O45  1  0.216901  0.190863  0.249383  1
  O  O46  1  0.783099  0.809137  0.750617  1
  O  O47  1  0.237161  0.677598  0.421685  1
  O  O48  1  0.762839  0.322402  0.578315  1
 
# Source:                            Grazulis_etal:NucleicAcidsRes.40.D420(2012)                                     
# Class:                             organic_molec_crystal                                                           
# Label:                             COD-2205162                                                                     
# Structure prediction method used:  NA                                                                              
# Number of atoms:                    48
# Number of atom types:                3
# Atom types:                         C  H  O
# Dielectric constant, electronic:   3.55848E+00
# Dielectric constant, ionic:        2.21102E+00
# Dielectric constant, total:        5.76950E+00
# Band gap at the GGA level (eV):    1.42600E+00
# Band gap at the HSE06 level (eV):  2.37150E+00
# Atomization energy (eV/atom):     -5.90522E+00
# Volume of the unit cell (A^3):     3.76018E+02
