# generated using pymatgen
data_H4C2O
_symmetry_space_group_name_H-M   'P 1'
_cell_length_a   7.37678560
_cell_length_b   7.37678560
_cell_length_c   7.37678560
_cell_angle_alpha   93.80029299
_cell_angle_beta   93.80029299
_cell_angle_gamma   150.16272982
_symmetry_Int_Tables_number   1
_chemical_formula_structural   H4C2O
_chemical_formula_sum   'H16 C8 O4'
_cell_volume   192.990791531
_cell_formula_units_Z   4
loop_
 _symmetry_equiv_pos_site_id
 _symmetry_equiv_pos_as_xyz
  1  'x, y, z'
loop_
 _atom_site_type_symbol
 _atom_site_label
 _atom_site_symmetry_multiplicity
 _atom_site_fract_x
 _atom_site_fract_y
 _atom_site_fract_z
 _atom_site_occupancy
  C  C1  1  0.271156  0.055084  0.114913  1
  C  C2  1  0.940171  0.156243  0.885087  1
  C  C3  1  0.156243  0.271156  0.216073  1
  C  C4  1  0.055084  0.940171  0.783927  1
  C  C5  1  0.329092  0.928671  0.210993  1
  C  C6  1  0.717678  0.118100  0.789007  1
  C  C7  1  0.118100  0.329092  0.400422  1
  C  C8  1  0.928671  0.717678  0.599578  1
  H  H9  1  0.531085  0.342879  0.100287  1
  H  H10  1  0.242592  0.430798  0.899713  1
  H  H11  1  0.430798  0.531085  0.188206  1
  H  H12  1  0.342879  0.242592  0.811794  1
  H  H13  1  0.463731  0.946703  0.133780  1
  H  H14  1  0.812924  0.329952  0.866220  1
  H  H15  1  0.329952  0.463731  0.517028  1
  H  H16  1  0.946703  0.812924  0.482972  1
  H  H17  1  0.504613  0.103837  0.353522  1
  H  H18  1  0.750315  0.151092  0.646478  1
  H  H19  1  0.151092  0.504613  0.400777  1
  H  H20  1  0.103837  0.750315  0.599223  1
  H  H21  1  0.057220  0.637599  0.217203  1
  H  H22  1  0.420397  0.840017  0.782797  1
  H  H23  1  0.840017  0.057220  0.419620  1
  H  H24  1  0.637599  0.420397  0.580380  1
  O  O25  1  0.096345  0.027128  0.226247  1
  O  O26  1  0.800881  0.870098  0.773753  1
  O  O27  1  0.870098  0.096345  0.069217  1
  O  O28  1  0.027128  0.800881  0.930783  1
 
# Source:                            Grazulis_etal:NucleicAcidsRes.40.D420(2012)                                     
# Class:                             organic_molec_crystal                                                           
# Label:                             COD-2205445                                                                     
# Structure prediction method used:  NA                                                                              
# Number of atoms:                    28
# Number of atom types:                3
# Atom types:                         C  H  O
# Dielectric constant, electronic:   2.63769E+00
# Dielectric constant, ionic:        4.34093E-01
# Dielectric constant, total:        3.07178E+00
# Band gap at the GGA level (eV):    6.67920E+00
# Band gap at the HSE06 level (eV):  8.58450E+00
# Atomization energy (eV/atom):     -5.26597E+00
# Volume of the unit cell (A^3):     1.92991E+02
