# generated using pymatgen
data_H12C7O6
_symmetry_space_group_name_H-M   'P 1'
_cell_length_a   5.56356661
_cell_length_b   7.53950917
_cell_length_c   8.60522373
_cell_angle_alpha   90.00000000
_cell_angle_beta   90.06447428
_cell_angle_gamma   90.00000000
_symmetry_Int_Tables_number   1
_chemical_formula_structural   H12C7O6
_chemical_formula_sum   'H24 C14 O12'
_cell_volume   360.959317932
_cell_formula_units_Z   2
loop_
 _symmetry_equiv_pos_site_id
 _symmetry_equiv_pos_as_xyz
  1  'x, y, z'
loop_
 _atom_site_type_symbol
 _atom_site_label
 _atom_site_symmetry_multiplicity
 _atom_site_fract_x
 _atom_site_fract_y
 _atom_site_fract_z
 _atom_site_occupancy
  C  C1  1  0.939634  0.316115  0.264793  1
  C  C2  1  0.060366  0.816115  0.735207  1
  C  C3  1  0.889306  0.511011  0.232655  1
  C  C4  1  0.110694  0.011011  0.767345  1
  C  C5  1  0.144923  0.588824  0.223517  1
  C  C6  1  0.855077  0.088824  0.776483  1
  C  C7  1  0.164107  0.784030  0.265109  1
  C  C8  1  0.835893  0.284030  0.734891  1
  C  C9  1  0.413526  0.861373  0.244887  1
  C  C10  1  0.586474  0.361373  0.755113  1
  C  C11  1  0.159893  0.327965  0.370446  1
  C  C12  1  0.840107  0.827965  0.629554  1
  C  C13  1  0.728499  0.214446  0.326968  1
  C  C14  1  0.271501  0.714446  0.673032  1
  H  H15  1  0.796146  0.566778  0.332735  1
  H  H16  1  0.203854  0.066778  0.667265  1
  H  H17  1  0.228219  0.560165  0.111322  1
  H  H18  1  0.771781  0.060165  0.888678  1
  H  H19  1  0.108828  0.802858  0.385278  1
  H  H20  1  0.891172  0.302858  0.614722  1
  H  H21  1  0.401740  0.002680  0.268443  1
  H  H22  1  0.598260  0.502680  0.731557  1
  H  H23  1  0.539396  0.802587  0.327277  1
  H  H24  1  0.460604  0.302587  0.672723  1
  H  H25  1  0.778452  0.079972  0.359801  1
  H  H26  1  0.221548  0.579972  0.640199  1
  H  H27  1  0.649358  0.281536  0.426269  1
  H  H28  1  0.350642  0.781536  0.573731  1
  H  H29  1  0.593806  0.209316  0.234679  1
  H  H30  1  0.406194  0.709316  0.765321  1
  H  H31  1  0.031046  0.105795  0.134760  1
  H  H32  1  0.968954  0.605795  0.865240  1
  H  H33  1  0.666830  0.649370  0.091267  1
  H  H34  1  0.333170  0.149370  0.908733  1
  H  H35  1  0.409681  0.891132  0.011673  1
  H  H36  1  0.590319  0.391132  0.988327  1
  H  H37  1  0.985807  0.834551  0.065343  1
  H  H38  1  0.014193  0.334551  0.934657  1
  O  O39  1  0.510017  0.830454  0.090797  1
  O  O40  1  0.489983  0.330454  0.909203  1
  O  O41  1  0.988388  0.881098  0.172943  1
  O  O42  1  0.011612  0.381098  0.827057  1
  O  O43  1  0.280231  0.483445  0.343338  1
  O  O44  1  0.719769  0.983445  0.656662  1
  O  O45  1  0.233495  0.215909  0.461277  1
  O  O46  1  0.766505  0.715909  0.538723  1
  O  O47  1  0.749130  0.531351  0.095166  1
  O  O48  1  0.250870  0.031351  0.904834  1
  O  O49  1  0.032550  0.237240  0.122091  1
  O  O50  1  0.967450  0.737240  0.877909  1
 
# Source:                            Grazulis_etal:NucleicAcidsRes.40.D420(2012)                                     
# Class:                             organic_molec_crystal                                                           
# Label:                             COD-2205662                                                                     
# Structure prediction method used:  NA                                                                              
# Number of atoms:                    50
# Number of atom types:                3
# Atom types:                         C  H  O
# Dielectric constant, electronic:   2.70398E+00
# Dielectric constant, ionic:        1.18834E+00
# Dielectric constant, total:        3.89232E+00
# Band gap at the GGA level (eV):    4.06310E+00
# Band gap at the HSE06 level (eV):  5.91760E+00
# Atomization energy (eV/atom):     -5.49738E+00
# Volume of the unit cell (A^3):     3.60959E+02
