# generated using pymatgen
data_H12C10O3
_symmetry_space_group_name_H-M   'P 1'
_cell_length_a   8.02199821
_cell_length_b   4.94285052
_cell_length_c   10.55216649
_cell_angle_alpha   90.00000000
_cell_angle_beta   111.72555750
_cell_angle_gamma   90.00000000
_symmetry_Int_Tables_number   1
_chemical_formula_structural   H12C10O3
_chemical_formula_sum   'H24 C20 O6'
_cell_volume   388.688969231
_cell_formula_units_Z   2
loop_
 _symmetry_equiv_pos_site_id
 _symmetry_equiv_pos_as_xyz
  1  'x, y, z'
loop_
 _atom_site_type_symbol
 _atom_site_label
 _atom_site_symmetry_multiplicity
 _atom_site_fract_x
 _atom_site_fract_y
 _atom_site_fract_z
 _atom_site_occupancy
  C  C1  1  0.717274  0.860975  0.180930  1
  C  C2  1  0.282726  0.360975  0.819070  1
  C  C3  1  0.676209  0.958200  0.048021  1
  C  C4  1  0.323791  0.458200  0.951979  1
  C  C5  1  0.743719  0.829586  0.959570  1
  C  C6  1  0.256281  0.329586  0.040430  1
  C  C7  1  0.852393  0.600973  0.003222  1
  C  C8  1  0.147607  0.100973  0.996778  1
  C  C9  1  0.891560  0.500178  0.134712  1
  C  C10  1  0.108440  0.000178  0.865288  1
  C  C11  1  0.823379  0.628590  0.223195  1
  C  C12  1  0.176621  0.128590  0.776805  1
  C  C13  1  0.650366  0.012673  0.277494  1
  C  C14  1  0.349634  0.512673  0.722506  1
  C  C15  1  0.484430  0.880467  0.288457  1
  C  C16  1  0.515570  0.380467  0.711543  1
  C  C17  1  0.383004  0.059778  0.351810  1
  C  C18  1  0.616996  0.559778  0.648190  1
  C  C19  1  0.219059  0.934057  0.364847  1
  C  C20  1  0.780941  0.434057  0.635153  1
  H  H21  1  0.138433  0.834740  0.269255  1
  H  H22  1  0.861567  0.334740  0.730745  1
  H  H23  1  0.262409  0.776233  0.443244  1
  H  H24  1  0.737591  0.276233  0.556756  1
  H  H25  1  0.905244  0.062592  0.407914  1
  H  H26  1  0.094756  0.562592  0.592086  1
  H  H27  1  0.176413  0.262407  0.464701  1
  H  H28  1  0.823587  0.762407  0.535299  1
  H  H29  1  0.594191  0.137889  0.015383  1
  H  H30  1  0.405809  0.637889  0.984617  1
  H  H31  1  0.714972  0.910248  0.858241  1
  H  H32  1  0.285028  0.410248  0.141759  1
  H  H33  1  0.909381  0.503688  0.936645  1
  H  H34  1  0.090619  0.003688  0.063355  1
  H  H35  1  0.976636  0.324886  0.170569  1
  H  H36  1  0.023364  0.824886  0.829431  1
  H  H37  1  0.858451  0.553292  0.326503  1
  H  H38  1  0.141549  0.053292  0.673497  1
  H  H39  1  0.617372  0.220570  0.240589  1
  H  H40  1  0.382628  0.720570  0.759411  1
  H  H41  1  0.390301  0.827727  0.186156  1
  H  H42  1  0.609699  0.327727  0.813844  1
  H  H43  1  0.518905  0.689535  0.344640  1
  H  H44  1  0.481095  0.189535  0.655360  1
  O  O45  1  0.426073  0.295471  0.387627  1
  O  O46  1  0.573927  0.795471  0.612373  1
  O  O47  1  0.105510  0.129481  0.394835  1
  O  O48  1  0.894490  0.629481  0.605165  1
  O  O49  1  0.787084  0.022465  0.414636  1
  O  O50  1  0.212916  0.522465  0.585364  1
 
# Source:                            Grazulis_etal:NucleicAcidsRes.40.D420(2012)                                     
# Class:                             organic_molec_crystal                                                           
# Label:                             COD-2211672                                                                     
# Structure prediction method used:  NA                                                                              
# Number of atoms:                    50
# Number of atom types:                3
# Atom types:                         C  H  O
# Dielectric constant, electronic:   2.97076E+00
# Dielectric constant, ionic:        5.39405E-01
# Dielectric constant, total:        3.51017E+00
# Band gap at the GGA level (eV):    3.49520E+00
# Band gap at the HSE06 level (eV):  4.76790E+00
# Atomization energy (eV/atom):     -5.75175E+00
# Volume of the unit cell (A^3):     3.88689E+02
