# generated using pymatgen
data_H14C8O5
_symmetry_space_group_name_H-M   'P 1'
_cell_length_a   6.10025938
_cell_length_b   5.92546672
_cell_length_c   10.40424961
_cell_angle_alpha   90.00000000
_cell_angle_beta   92.04209215
_cell_angle_gamma   90.00000000
_symmetry_Int_Tables_number   1
_chemical_formula_structural   H14C8O5
_chemical_formula_sum   'H28 C16 O10'
_cell_volume   375.842361055
_cell_formula_units_Z   2
loop_
 _symmetry_equiv_pos_site_id
 _symmetry_equiv_pos_as_xyz
  1  'x, y, z'
loop_
 _atom_site_type_symbol
 _atom_site_label
 _atom_site_symmetry_multiplicity
 _atom_site_fract_x
 _atom_site_fract_y
 _atom_site_fract_z
 _atom_site_occupancy
  C  C1  1  0.928915  0.681186  0.850150  1
  C  C2  1  0.071085  0.181186  0.149850  1
  C  C3  1  0.714019  0.654393  0.771161  1
  C  C4  1  0.285981  0.154393  0.228839  1
  C  C5  1  0.745721  0.427887  0.697993  1
  C  C6  1  0.254279  0.927887  0.302007  1
  C  C7  1  0.906138  0.296084  0.787048  1
  C  C8  1  0.093862  0.796084  0.212952  1
  C  C9  1  0.092670  0.226709  0.698863  1
  C  C10  1  0.907330  0.726709  0.301137  1
  C  C11  1  0.082271  0.404092  0.591439  1
  C  C12  1  0.917729  0.904092  0.408561  1
  C  C13  1  0.471673  0.785302  0.939142  1
  C  C14  1  0.528327  0.285302  0.060858  1
  C  C15  1  0.487720  0.855303  0.615434  1
  C  C16  1  0.512280  0.355303  0.384566  1
  H  H17  1  0.052678  0.755638  0.788940  1
  H  H18  1  0.947322  0.255638  0.211060  1
  H  H19  1  0.918742  0.781816  0.937100  1
  H  H20  1  0.081258  0.281816  0.062900  1
  H  H21  1  0.591001  0.342037  0.678759  1
  H  H22  1  0.408999  0.842037  0.321241  1
  H  H23  1  0.833997  0.153218  0.835668  1
  H  H24  1  0.166003  0.653218  0.164332  1
  H  H25  1  0.057809  0.059951  0.658929  1
  H  H26  1  0.942191  0.559951  0.341071  1
  H  H27  1  0.175722  0.554790  0.619776  1
  H  H28  1  0.824278  0.054790  0.380224  1
  H  H29  1  0.135832  0.341688  0.499559  1
  H  H30  1  0.864168  0.841688  0.500441  1
  H  H31  1  0.333694  0.720273  0.991011  1
  H  H32  1  0.666306  0.220273  0.008989  1
  H  H33  1  0.424867  0.939651  0.888627  1
  H  H34  1  0.575133  0.439651  0.111373  1
  H  H35  1  0.610250  0.813540  0.005506  1
  H  H36  1  0.389750  0.313540  0.994494  1
  H  H37  1  0.478067  0.022098  0.574170  1
  H  H38  1  0.521933  0.522098  0.425830  1
  H  H39  1  0.344396  0.827424  0.672404  1
  H  H40  1  0.655604  0.327424  0.327596  1
  H  H41  1  0.495831  0.728558  0.540189  1
  H  H42  1  0.504169  0.228558  0.459811  1
  H  H43  1  0.333373  0.360987  0.805530  1
  H  H44  1  0.666627  0.860987  0.194470  1
  O  O45  1  0.301077  0.213496  0.765863  1
  O  O46  1  0.698923  0.713496  0.234137  1
  O  O47  1  0.526357  0.608658  0.847438  1
  O  O48  1  0.473643  0.108658  0.152562  1
  O  O49  1  0.686204  0.852309  0.696047  1
  O  O50  1  0.313796  0.352309  0.303953  1
  O  O51  1  0.989221  0.452965  0.887313  1
  O  O52  1  0.010779  0.952965  0.112687  1
  O  O53  1  0.849832  0.458246  0.575285  1
  O  O54  1  0.150168  0.958246  0.424715  1
 
# Source:                            Grazulis_etal:NucleicAcidsRes.40.D420(2012)                                     
# Class:                             organic_molec_crystal                                                           
# Label:                             COD-2214647                                                                     
# Structure prediction method used:  NA                                                                              
# Number of atoms:                    54
# Number of atom types:                3
# Atom types:                         C  H  O
# Dielectric constant, electronic:   2.70421E+00
# Dielectric constant, ionic:        5.92329E-01
# Dielectric constant, total:        3.29654E+00
# Band gap at the GGA level (eV):    5.30600E+00
# Band gap at the HSE06 level (eV):  7.05690E+00
# Atomization energy (eV/atom):     -5.35974E+00
# Volume of the unit cell (A^3):     3.75842E+02
