# generated using pymatgen
data_H2C2O
_symmetry_space_group_name_H-M   'P 1'
_cell_length_a   5.06653400
_cell_length_b   6.45599800
_cell_length_c   10.10085000
_cell_angle_alpha   90.00000000
_cell_angle_beta   90.00000000
_cell_angle_gamma   90.00000000
_symmetry_Int_Tables_number   1
_chemical_formula_structural   H2C2O
_chemical_formula_sum   'H16 C16 O8'
_cell_volume   330.39409015
_cell_formula_units_Z   8
loop_
 _symmetry_equiv_pos_site_id
 _symmetry_equiv_pos_as_xyz
  1  'x, y, z'
loop_
 _atom_site_type_symbol
 _atom_site_label
 _atom_site_symmetry_multiplicity
 _atom_site_fract_x
 _atom_site_fract_y
 _atom_site_fract_z
 _atom_site_occupancy
  C  C1  1  0.167806  0.334950  0.813381  1
  C  C2  1  0.332194  0.665050  0.313381  1
  C  C3  1  0.832194  0.834950  0.686619  1
  C  C4  1  0.667806  0.165050  0.186619  1
  C  C5  1  0.089233  0.439059  0.947241  1
  C  C6  1  0.410767  0.560941  0.447241  1
  C  C7  1  0.910767  0.939059  0.552759  1
  C  C8  1  0.589233  0.060941  0.052759  1
  C  C9  1  0.345957  0.564179  0.946055  1
  C  C10  1  0.154043  0.435821  0.446055  1
  C  C11  1  0.654043  0.064179  0.553945  1
  C  C12  1  0.845957  0.935821  0.053945  1
  C  C13  1  0.428282  0.455146  0.814066  1
  C  C14  1  0.071718  0.544854  0.314066  1
  C  C15  1  0.571718  0.955146  0.685934  1
  C  C16  1  0.928282  0.044854  0.185934  1
  H  H17  1  0.470000  0.532203  0.031671  1
  H  H18  1  0.030000  0.467797  0.531671  1
  H  H19  1  0.530000  0.032203  0.468329  1
  H  H20  1  0.970000  0.967797  0.968329  1
  H  H21  1  0.313660  0.730537  0.938388  1
  H  H22  1  0.186340  0.269463  0.438388  1
  H  H23  1  0.686340  0.230537  0.561612  1
  H  H24  1  0.813660  0.769463  0.061612  1
  H  H25  1  0.445723  0.554260  0.727967  1
  H  H26  1  0.054277  0.445740  0.227967  1
  H  H27  1  0.554277  0.054260  0.772033  1
  H  H28  1  0.945723  0.945740  0.272033  1
  H  H29  1  0.603804  0.358441  0.819714  1
  H  H30  1  0.896196  0.641559  0.319714  1
  H  H31  1  0.396196  0.858441  0.680286  1
  H  H32  1  0.103804  0.141559  0.180286  1
  O  O33  1  0.056010  0.215040  0.739423  1
  O  O34  1  0.443990  0.784960  0.239423  1
  O  O35  1  0.943990  0.715040  0.760577  1
  O  O36  1  0.556010  0.284960  0.260577  1
  O  O37  1  0.901691  0.421536  0.021768  1
  O  O38  1  0.598309  0.578464  0.521768  1
  O  O39  1  0.098309  0.921536  0.478232  1
  O  O40  1  0.401691  0.078464  0.978232  1
 
# Source:                            Grazulis_etal:NucleicAcidsRes.40.D420(2012)                                     
# Class:                             organic_molec_crystal                                                           
# Label:                             COD-2215601                                                                     
# Structure prediction method used:  NA                                                                              
# Number of atoms:                    40
# Number of atom types:                3
# Atom types:                         C  H  O
# Dielectric constant, electronic:   3.06029E+00
# Dielectric constant, ionic:        1.24333E+00
# Dielectric constant, total:        4.30363E+00
# Band gap at the GGA level (eV):    1.46500E+00
# Band gap at the HSE06 level (eV):  3.08740E+00
# Atomization energy (eV/atom):     -5.83777E+00
# Volume of the unit cell (A^3):     3.30394E+02
