# generated using pymatgen
data_H14C6O5
_symmetry_space_group_name_H-M   'P 1'
_cell_length_a   4.58053300
_cell_length_b   4.52873894
_cell_length_c   16.51612121
_cell_angle_alpha   90.00000000
_cell_angle_beta   95.33919039
_cell_angle_gamma   90.00000000
_symmetry_Int_Tables_number   1
_chemical_formula_structural   H14C6O5
_chemical_formula_sum   'H28 C12 O10'
_cell_volume   341.124557054
_cell_formula_units_Z   2
loop_
 _symmetry_equiv_pos_site_id
 _symmetry_equiv_pos_as_xyz
  1  'x, y, z'
loop_
 _atom_site_type_symbol
 _atom_site_label
 _atom_site_symmetry_multiplicity
 _atom_site_fract_x
 _atom_site_fract_y
 _atom_site_fract_z
 _atom_site_occupancy
  C  C1  1  0.396375  0.271040  0.222879  1
  C  C2  1  0.603625  0.771040  0.777121  1
  C  C3  1  0.230016  0.328423  0.297575  1
  C  C4  1  0.769984  0.828423  0.702425  1
  C  C5  1  0.428709  0.375250  0.376648  1
  C  C6  1  0.571291  0.875250  0.623352  1
  C  C7  1  0.249135  0.404570  0.449213  1
  C  C8  1  0.750865  0.904570  0.550787  1
  C  C9  1  0.194389  0.223287  0.144657  1
  C  C10  1  0.805611  0.723287  0.855343  1
  C  C11  1  0.368476  0.186549  0.071237  1
  C  C12  1  0.631524  0.686549  0.928763  1
  H  H13  1  0.542324  0.457291  0.213470  1
  H  H14  1  0.457676  0.957291  0.786530  1
  H  H15  1  0.086031  0.140318  0.306645  1
  H  H16  1  0.913969  0.640318  0.693355  1
  H  H17  1  0.582753  0.191899  0.385936  1
  H  H18  1  0.417247  0.691899  0.614064  1
  H  H19  1  0.390242  0.414209  0.505781  1
  H  H20  1  0.609758  0.914209  0.494219  1
  H  H21  1  0.105420  0.212434  0.452455  1
  H  H22  1  0.894580  0.712434  0.547545  1
  H  H23  1  0.113007  0.602636  0.443437  1
  H  H24  1  0.886993  0.102636  0.556563  1
  H  H25  1  0.043001  0.408334  0.133914  1
  H  H26  1  0.956999  0.908334  0.866086  1
  H  H27  1  0.505168  0.988824  0.077261  1
  H  H28  1  0.494832  0.488824  0.922739  1
  H  H29  1  0.509871  0.378933  0.065304  1
  H  H30  1  0.490129  0.878933  0.934696  1
  H  H31  1  0.897555  0.602086  0.316622  1
  H  H32  1  0.102445  0.102086  0.683378  1
  H  H33  1  0.109029  0.825854  0.192424  1
  H  H34  1  0.890971  0.325854  0.807576  1
  H  H35  1  0.513950  0.772251  0.328255  1
  H  H36  1  0.486050  0.272251  0.671745  1
  H  H37  1  0.727632  0.994858  0.204761  1
  H  H38  1  0.272368  0.494858  0.795239  1
  H  H39  1  0.054107  0.328255  0.988872  1
  H  H40  1  0.945893  0.828255  0.011128  1
  O  O41  1  0.566366  0.006830  0.241393  1
  O  O42  1  0.433634  0.506830  0.758607  1
  O  O43  1  0.056909  0.590541  0.279441  1
  O  O44  1  0.943091  0.090541  0.720559  1
  O  O45  1  0.609722  0.639556  0.369979  1
  O  O46  1  0.390278  0.139556  0.630021  1
  O  O47  1  0.011606  0.961721  0.151828  1
  O  O48  1  0.988394  0.461721  0.848172  1
  O  O49  1  0.173328  0.145951  0.997535  1
  O  O50  1  0.826672  0.645951  0.002465  1
 
# Source:                            Grazulis_etal:NucleicAcidsRes.40.D420(2012)                                     
# Class:                             organic_molec_crystal                                                           
# Label:                             COD-2219092                                                                     
# Structure prediction method used:  NA                                                                              
# Number of atoms:                    50
# Number of atom types:                3
# Atom types:                         C  H  O
# Dielectric constant, electronic:   2.62515E+00
# Dielectric constant, ionic:        8.55623E-01
# Dielectric constant, total:        3.48077E+00
# Band gap at the GGA level (eV):    5.65290E+00
# Band gap at the HSE06 level (eV):  7.43270E+00
# Atomization energy (eV/atom):     -5.21523E+00
# Volume of the unit cell (A^3):     3.41125E+02
