# generated using pymatgen
data_H14(C3O)3
_symmetry_space_group_name_H-M   'P 1'
_cell_length_a   5.70983569
_cell_length_b   5.82994752
_cell_length_c   13.15727257
_cell_angle_alpha   91.77673875
_cell_angle_beta   94.23705320
_cell_angle_gamma   118.44481620
_symmetry_Int_Tables_number   1
_chemical_formula_structural   H14(C3O)3
_chemical_formula_sum   'H28 C18 O6'
_cell_volume   382.956845659
_cell_formula_units_Z   2
loop_
 _symmetry_equiv_pos_site_id
 _symmetry_equiv_pos_as_xyz
  1  'x, y, z'
loop_
 _atom_site_type_symbol
 _atom_site_label
 _atom_site_symmetry_multiplicity
 _atom_site_fract_x
 _atom_site_fract_y
 _atom_site_fract_z
 _atom_site_occupancy
  C  C1  1  0.213538  0.332297  0.688581  1
  C  C2  1  0.786462  0.667703  0.311419  1
  C  C3  1  0.239503  0.550234  0.766140  1
  C  C4  1  0.760497  0.449766  0.233860  1
  C  C5  1  0.218858  0.477293  0.874832  1
  C  C6  1  0.781142  0.522707  0.125168  1
  C  C7  1  0.090346  0.224378  0.897278  1
  C  C8  1  0.909654  0.775622  0.102722  1
  C  C9  1  0.970749  0.007691  0.819758  1
  C  C10  1  0.029251  0.992309  0.180242  1
  C  C11  1  0.972524  0.068866  0.708362  1
  C  C12  1  0.027476  0.931134  0.291638  1
  C  C13  1  0.342276  0.695966  0.956513  1
  C  C14  1  0.657724  0.304034  0.043487  1
  C  C15  1  0.469846  0.304673  0.696842  1
  C  C16  1  0.530154  0.695327  0.303158  1
  C  C17  1  0.164754  0.404471  0.580660  1
  C  C18  1  0.835246  0.595529  0.419340  1
  H  H19  1  0.077157  0.180089  0.976472  1
  H  H20  1  0.922843  0.819911  0.023528  1
  H  H21  1  0.426876  0.730520  0.761505  1
  H  H22  1  0.573124  0.269480  0.238495  1
  H  H23  1  0.077271  0.597018  0.746327  1
  H  H24  1  0.922729  0.402982  0.253673  1
  H  H25  1  0.965698  0.907964  0.660778  1
  H  H26  1  0.034302  0.092036  0.339222  1
  H  H27  1  0.786234  0.074412  0.686604  1
  H  H28  1  0.213766  0.925588  0.313396  1
  H  H29  1  0.303618  0.627701  0.032989  1
  H  H30  1  0.696382  0.372299  0.967011  1
  H  H31  1  0.266045  0.833310  0.943024  1
  H  H32  1  0.733955  0.166690  0.056976  1
  H  H33  1  0.557961  0.802002  0.951697  1
  H  H34  1  0.442039  0.197998  0.048303  1
  H  H35  1  0.645266  0.492105  0.689592  1
  H  H36  1  0.354734  0.507895  0.310408  1
  H  H37  1  0.499620  0.234244  0.770344  1
  H  H38  1  0.500380  0.765756  0.229656  1
  H  H39  1  0.139637  0.255417  0.521969  1
  H  H40  1  0.860363  0.744583  0.478031  1
  H  H41  1  0.983008  0.423494  0.575854  1
  H  H42  1  0.016992  0.576506  0.424146  1
  H  H43  1  0.513078  0.211502  0.555026  1
  H  H44  1  0.486922  0.788498  0.444974  1
  H  H45  1  0.390028  0.798143  0.593306  1
  H  H46  1  0.609972  0.201857  0.406694  1
  O  O47  1  0.391795  0.647812  0.557025  1
  O  O48  1  0.608205  0.352188  0.442975  1
  O  O49  1  0.861998  0.775469  0.843589  1
  O  O50  1  0.138002  0.224531  0.156411  1
  O  O51  1  0.450400  0.115506  0.617038  1
  O  O52  1  0.549600  0.884494  0.382962  1
 
# Source:                            Grazulis_etal:NucleicAcidsRes.40.D420(2012)                                     
# Class:                             organic_molec_crystal                                                           
# Label:                             COD-2219310                                                                     
# Structure prediction method used:  NA                                                                              
# Number of atoms:                    52
# Number of atom types:                3
# Atom types:                         C  H  O
# Dielectric constant, electronic:   2.85805E+00
# Dielectric constant, ionic:        7.59888E-01
# Dielectric constant, total:        3.61794E+00
# Band gap at the GGA level (eV):    2.69610E+00
# Band gap at the HSE06 level (eV):  4.34010E+00
# Atomization energy (eV/atom):     -5.48170E+00
# Volume of the unit cell (A^3):     3.82957E+02
