# generated using pymatgen
data_H5C9O2
_symmetry_space_group_name_H-M   'P 1'
_cell_length_a   6.45329333
_cell_length_b   6.83899823
_cell_length_c   7.48432384
_cell_angle_alpha   111.55410122
_cell_angle_beta   94.16752785
_cell_angle_gamma   108.41715995
_symmetry_Int_Tables_number   1
_chemical_formula_structural   H5C9O2
_chemical_formula_sum   'H10 C18 O4'
_cell_volume   284.734766887
_cell_formula_units_Z   2
loop_
 _symmetry_equiv_pos_site_id
 _symmetry_equiv_pos_as_xyz
  1  'x, y, z'
loop_
 _atom_site_type_symbol
 _atom_site_label
 _atom_site_symmetry_multiplicity
 _atom_site_fract_x
 _atom_site_fract_y
 _atom_site_fract_z
 _atom_site_occupancy
  C  C1  1  0.742108  0.641698  0.828573  1
  C  C2  1  0.257892  0.358302  0.171427  1
  C  C3  1  0.772588  0.597974  0.003090  1
  C  C4  1  0.227412  0.402026  0.996910  1
  C  C5  1  0.849040  0.749916  0.200398  1
  C  C6  1  0.150960  0.250084  0.799602  1
  C  C7  1  0.861397  0.660539  0.339164  1
  C  C8  1  0.138603  0.339461  0.660836  1
  C  C9  1  0.804479  0.426032  0.279495  1
  C  C10  1  0.195521  0.573968  0.720505  1
  C  C11  1  0.728450  0.274213  0.082229  1
  C  C12  1  0.271550  0.725787  0.917771  1
  C  C13  1  0.709222  0.362593  0.942910  1
  C  C14  1  0.290778  0.637407  0.057090  1
  C  C15  1  0.629487  0.256539  0.732006  1
  C  C16  1  0.370513  0.743461  0.267994  1
  C  C17  1  0.540680  0.035967  0.602214  1
  C  C18  1  0.459320  0.964033  0.397786  1
  H  H19  1  0.898149  0.929859  0.241430  1
  H  H20  1  0.101851  0.070141  0.758570  1
  H  H21  1  0.911718  0.770482  0.494666  1
  H  H22  1  0.088282  0.229518  0.505334  1
  H  H23  1  0.818465  0.362526  0.390596  1
  H  H24  1  0.181535  0.637474  0.609404  1
  H  H25  1  0.690884  0.095238  0.038158  1
  H  H26  1  0.309116  0.904762  0.961842  1
  H  H27  1  0.537668  0.911188  0.659374  1
  H  H28  1  0.462332  0.088812  0.340626  1
  O  O29  1  0.648833  0.428304  0.665263  1
  O  O30  1  0.351167  0.571696  0.334737  1
  O  O31  1  0.782944  0.816379  0.804822  1
  O  O32  1  0.217056  0.183621  0.195178  1
 
# Source:                            Grazulis_etal:NucleicAcidsRes.40.D420(2012)                                     
# Class:                             organic_molec_crystal                                                           
# Label:                             COD-2222991                                                                     
# Structure prediction method used:  NA                                                                              
# Number of atoms:                    32
# Number of atom types:                3
# Atom types:                         C  H  O
# Dielectric constant, electronic:   4.91049E+00
# Dielectric constant, ionic:        5.84122E-01
# Dielectric constant, total:        5.49461E+00
# Band gap at the GGA level (eV):    1.23730E+00
# Band gap at the HSE06 level (eV):  1.85200E+00
# Atomization energy (eV/atom):     -6.52101E+00
# Volume of the unit cell (A^3):     2.84735E+02
