# generated using pymatgen
data_H4C5O
_symmetry_space_group_name_H-M   'P 1'
_cell_length_a   6.21780595
_cell_length_b   6.62087000
_cell_length_c   8.71831862
_cell_angle_alpha   75.61089737
_cell_angle_beta   78.02305456
_cell_angle_gamma   82.72779861
_symmetry_Int_Tables_number   1
_chemical_formula_structural   H4C5O
_chemical_formula_sum   'H16 C20 O4'
_cell_volume   339.015343932
_cell_formula_units_Z   4
loop_
 _symmetry_equiv_pos_site_id
 _symmetry_equiv_pos_as_xyz
  1  'x, y, z'
loop_
 _atom_site_type_symbol
 _atom_site_label
 _atom_site_symmetry_multiplicity
 _atom_site_fract_x
 _atom_site_fract_y
 _atom_site_fract_z
 _atom_site_occupancy
  C  C1  1  0.597501  0.711742  0.056912  1
  C  C2  1  0.402499  0.288258  0.943088  1
  C  C3  1  0.429798  0.768748  0.965165  1
  C  C4  1  0.570202  0.231252  0.034835  1
  C  C5  1  0.477743  0.768994  0.792642  1
  C  C6  1  0.522257  0.231006  0.207358  1
  C  C7  1  0.707441  0.715855  0.728503  1
  C  C8  1  0.292559  0.284145  0.271497  1
  C  C9  1  0.856760  0.658288  0.827568  1
  C  C10  1  0.143240  0.341712  0.172432  1
  C  C11  1  0.777850  0.723606  0.552319  1
  C  C12  1  0.222150  0.276394  0.447681  1
  C  C13  1  0.219159  0.828367  0.044266  1
  C  C14  1  0.780841  0.171633  0.955734  1
  C  C15  1  0.179904  0.833506  0.205801  1
  C  C16  1  0.820096  0.166494  0.794199  1
  C  C17  1  0.352477  0.777054  0.294616  1
  C  C18  1  0.647523  0.222946  0.705384  1
  C  C19  1  0.561342  0.714397  0.220076  1
  C  C20  1  0.438658  0.285603  0.779924  1
  H  H21  1  0.030221  0.619396  0.788750  1
  H  H22  1  0.969779  0.380604  0.211250  1
  H  H23  1  0.954918  0.682525  0.523318  1
  H  H24  1  0.045082  0.317475  0.476682  1
  H  H25  1  0.736930  0.879150  0.480136  1
  H  H26  1  0.263070  0.120850  0.519864  1
  H  H27  1  0.690670  0.611921  0.519187  1
  H  H28  1  0.309330  0.388079  0.480813  1
  H  H29  1  0.089660  0.869846  0.974446  1
  H  H30  1  0.910340  0.130154  0.025554  1
  H  H31  1  0.017566  0.886563  0.262222  1
  H  H32  1  0.982434  0.113437  0.737778  1
  H  H33  1  0.324666  0.784461  0.420498  1
  H  H34  1  0.675334  0.215539  0.579502  1
  H  H35  1  0.698485  0.670168  0.283202  1
  H  H36  1  0.301515  0.329832  0.716798  1
  O  O37  1  0.331206  0.813764  0.706212  1
  O  O38  1  0.668794  0.186236  0.293788  1
  O  O39  1  0.809903  0.650429  0.989368  1
  O  O40  1  0.190097  0.349571  0.010632  1
 
# Source:                            Grazulis_etal:NucleicAcidsRes.40.D420(2012)                                     
# Class:                             organic_molec_crystal                                                           
# Label:                             COD-2226673                                                                     
# Structure prediction method used:  NA                                                                              
# Number of atoms:                    40
# Number of atom types:                3
# Atom types:                         C  H  O
# Dielectric constant, electronic:   3.18599E+00
# Dielectric constant, ionic:        4.89647E-01
# Dielectric constant, total:        3.67564E+00
# Band gap at the GGA level (eV):    2.77860E+00
# Band gap at the HSE06 level (eV):  3.77170E+00
# Atomization energy (eV/atom):     -6.15639E+00
# Volume of the unit cell (A^3):     3.39015E+02
