# generated using pymatgen
data_H8(C3O)3
_symmetry_space_group_name_H-M   'P 1'
_cell_length_a   4.43934765
_cell_length_b   8.14915421
_cell_length_c   9.09304143
_cell_angle_alpha   88.49275831
_cell_angle_beta   86.14239826
_cell_angle_gamma   79.65086433
_symmetry_Int_Tables_number   1
_chemical_formula_structural   H8(C3O)3
_chemical_formula_sum   'H16 C18 O6'
_cell_volume   322.839541076
_cell_formula_units_Z   2
loop_
 _symmetry_equiv_pos_site_id
 _symmetry_equiv_pos_as_xyz
  1  'x, y, z'
loop_
 _atom_site_type_symbol
 _atom_site_label
 _atom_site_symmetry_multiplicity
 _atom_site_fract_x
 _atom_site_fract_y
 _atom_site_fract_z
 _atom_site_occupancy
  C  C1  1  0.716327  0.263538  0.858373  1
  C  C2  1  0.283673  0.736462  0.141627  1
  C  C3  1  0.509273  0.316947  0.751879  1
  C  C4  1  0.490727  0.683053  0.248121  1
  C  C5  1  0.442673  0.488267  0.709458  1
  C  C6  1  0.557327  0.511733  0.290542  1
  C  C7  1  0.583464  0.602323  0.777138  1
  C  C8  1  0.416536  0.397677  0.222862  1
  C  C9  1  0.791195  0.550257  0.885533  1
  C  C10  1  0.208805  0.449743  0.114467  1
  C  C11  1  0.857572  0.380279  0.926378  1
  C  C12  1  0.142428  0.619721  0.073622  1
  C  C13  1  0.067695  0.323191  0.043422  1
  C  C14  1  0.932305  0.676809  0.956578  1
  C  C15  1  0.393643  0.041252  0.722068  1
  C  C16  1  0.606357  0.958748  0.277932  1
  C  C17  1  0.141703  0.703550  0.567417  1
  C  C18  1  0.858297  0.296450  0.432583  1
  H  H19  1  0.766615  0.133973  0.893458  1
  H  H20  1  0.233385  0.866027  0.106542  1
  H  H21  1  0.530589  0.733259  0.750122  1
  H  H22  1  0.469411  0.266741  0.249878  1
  H  H23  1  0.630107  0.981605  0.692786  1
  H  H24  1  0.369893  0.018396  0.307214  1
  H  H25  1  0.233587  0.991620  0.657763  1
  H  H26  1  0.766413  0.008380  0.342237  1
  H  H27  1  0.339319  0.023530  0.839778  1
  H  H28  1  0.660681  0.976470  0.160222  1
  H  H29  1  0.030502  0.771131  0.664180  1
  H  H30  1  0.969498  0.228869  0.335820  1
  H  H31  1  0.982875  0.705921  0.481561  1
  H  H32  1  0.017125  0.294079  0.518439  1
  H  H33  1  0.343178  0.754671  0.527140  1
  H  H34  1  0.656822  0.245329  0.472860  1
  O  O35  1  0.122377  0.172726  0.082970  1
  O  O36  1  0.877623  0.827274  0.917030  1
  O  O37  1  0.349600  0.216811  0.681403  1
  O  O38  1  0.650400  0.783189  0.318597  1
  O  O39  1  0.232328  0.527215  0.605611  1
  O  O40  1  0.767672  0.472785  0.394389  1
 
# Source:                            Grazulis_etal:NucleicAcidsRes.40.D420(2012)                                     
# Class:                             organic_molec_crystal                                                           
# Label:                             COD-2235810                                                                     
# Structure prediction method used:  NA                                                                              
# Number of atoms:                    40
# Number of atom types:                3
# Atom types:                         C  H  O
# Dielectric constant, electronic:   3.58508E+00
# Dielectric constant, ionic:        9.67142E-01
# Dielectric constant, total:        4.55222E+00
# Band gap at the GGA level (eV):    1.12870E+00
# Band gap at the HSE06 level (eV):  1.91530E+00
# Atomization energy (eV/atom):     -6.02780E+00
# Volume of the unit cell (A^3):     3.22840E+02
