# generated using pymatgen
data_H5C5O2
_symmetry_space_group_name_H-M   'P 1'
_cell_length_a   5.61647294
_cell_length_b   7.46971824
_cell_length_c   10.01668764
_cell_angle_alpha   73.04018839
_cell_angle_beta   79.05514744
_cell_angle_gamma   75.56917863
_symmetry_Int_Tables_number   1
_chemical_formula_structural   H5C5O2
_chemical_formula_sum   'H20 C20 O8'
_cell_volume   386.149949195
_cell_formula_units_Z   4
loop_
 _symmetry_equiv_pos_site_id
 _symmetry_equiv_pos_as_xyz
  1  'x, y, z'
loop_
 _atom_site_type_symbol
 _atom_site_label
 _atom_site_symmetry_multiplicity
 _atom_site_fract_x
 _atom_site_fract_y
 _atom_site_fract_z
 _atom_site_occupancy
  C  C1  1  0.589288  0.634294  0.341223  1
  C  C2  1  0.410712  0.365706  0.658777  1
  C  C3  1  0.418541  0.611060  0.263163  1
  C  C4  1  0.581459  0.388940  0.736837  1
  C  C5  1  0.457390  0.437376  0.227902  1
  C  C6  1  0.542610  0.562624  0.772098  1
  C  C7  1  0.661794  0.291225  0.263305  1
  C  C8  1  0.338206  0.708775  0.736695  1
  C  C9  1  0.835049  0.316841  0.335268  1
  C  C10  1  0.164951  0.683159  0.664732  1
  C  C11  1  0.797499  0.486729  0.373823  1
  C  C12  1  0.202501  0.513271  0.626177  1
  C  C13  1  0.549762  0.806028  0.394231  1
  C  C14  1  0.450238  0.193972  0.605769  1
  C  C15  1  0.207256  0.771003  0.211351  1
  C  C16  1  0.792744  0.228997  0.788649  1
  C  C17  1  0.877177  0.819414  0.072948  1
  C  C18  1  0.122823  0.180586  0.927052  1
  C  C19  1  0.781201  0.742513  0.975732  1
  C  C20  1  0.218799  0.257487  0.024268  1
  H  H21  1  0.690451  0.912782  0.511503  1
  H  H22  1  0.309549  0.087218  0.488497  1
  H  H23  1  0.326732  0.417902  0.170456  1
  H  H24  1  0.673268  0.582098  0.829544  1
  H  H25  1  0.686622  0.160094  0.232594  1
  H  H26  1  0.313378  0.839906  0.767406  1
  H  H27  1  0.995438  0.204746  0.362284  1
  H  H28  1  0.004562  0.795254  0.637716  1
  H  H29  1  0.930599  0.506333  0.429709  1
  H  H30  1  0.069401  0.493667  0.570291  1
  H  H31  1  0.065478  0.804757  0.295875  1
  H  H32  1  0.934522  0.195243  0.704125  1
  H  H33  1  0.274437  0.900284  0.153339  1
  H  H34  1  0.725563  0.099716  0.846661  1
  H  H35  1  0.586624  0.808786  0.967499  1
  H  H36  1  0.413376  0.191214  0.032501  1
  H  H37  1  0.806718  0.587347  0.011865  1
  H  H38  1  0.193282  0.412653  0.988135  1
  H  H39  1  0.887058  0.777852  0.871704  1
  H  H40  1  0.112942  0.222148  0.128296  1
  O  O41  1  0.360014  0.936101  0.384008  1
  O  O42  1  0.639986  0.063899  0.615992  1
  O  O43  1  0.736340  0.808080  0.460927  1
  O  O44  1  0.263660  0.191920  0.539073  1
  O  O45  1  0.095693  0.710068  0.113826  1
  O  O46  1  0.904307  0.289932  0.886174  1
  O  O47  1  0.772955  0.965009  0.111299  1
  O  O48  1  0.227045  0.034991  0.888701  1
 
# Source:                            Grazulis_etal:NucleicAcidsRes.40.D420(2012)                                     
# Class:                             organic_molec_crystal                                                           
# Label:                             COD-2237305                                                                     
# Structure prediction method used:  NA                                                                              
# Number of atoms:                    48
# Number of atom types:                3
# Atom types:                         C  H  O
# Dielectric constant, electronic:   3.02133E+00
# Dielectric constant, ionic:        6.22603E-01
# Dielectric constant, total:        3.64394E+00
# Band gap at the GGA level (eV):    3.12570E+00
# Band gap at the HSE06 level (eV):  4.18560E+00
# Atomization energy (eV/atom):     -5.98669E+00
# Volume of the unit cell (A^3):     3.86150E+02
