# generated using pymatgen
data_H6C6O
_symmetry_space_group_name_H-M   'P 1'
_cell_length_a   6.79563265
_cell_length_b   9.42117100
_cell_length_c   6.42108658
_cell_angle_alpha   90.00000000
_cell_angle_beta   93.41066056
_cell_angle_gamma   90.00000000
_symmetry_Int_Tables_number   1
_chemical_formula_structural   H6C6O
_chemical_formula_sum   'H24 C24 O4'
_cell_volume   410.367909461
_cell_formula_units_Z   4
loop_
 _symmetry_equiv_pos_site_id
 _symmetry_equiv_pos_as_xyz
  1  'x, y, z'
loop_
 _atom_site_type_symbol
 _atom_site_label
 _atom_site_symmetry_multiplicity
 _atom_site_fract_x
 _atom_site_fract_y
 _atom_site_fract_z
 _atom_site_occupancy
  C  C1  1  0.458420  0.358789  0.832002  1
  C  C2  1  0.541580  0.641211  0.167998  1
  C  C3  1  0.541580  0.858789  0.667998  1
  C  C4  1  0.458420  0.141211  0.332002  1
  C  C5  1  0.272773  0.359173  0.720197  1
  C  C6  1  0.727227  0.640827  0.279803  1
  C  C7  1  0.727227  0.859173  0.779803  1
  C  C8  1  0.272773  0.140827  0.220197  1
  C  C9  1  0.245104  0.427447  0.530996  1
  C  C10  1  0.754896  0.572553  0.469004  1
  C  C11  1  0.754896  0.927447  0.969004  1
  C  C12  1  0.245104  0.072553  0.030996  1
  C  C13  1  0.405109  0.499031  0.444665  1
  C  C14  1  0.594891  0.500969  0.555335  1
  C  C15  1  0.594891  0.999031  0.055335  1
  C  C16  1  0.405109  0.000969  0.944665  1
  C  C17  1  0.383997  0.571467  0.248664  1
  C  C18  1  0.616003  0.428533  0.751336  1
  C  C19  1  0.616003  0.071467  0.251336  1
  C  C20  1  0.383997  0.928533  0.748664  1
  C  C21  1  0.156790  0.657657  0.970896  1
  C  C22  1  0.843210  0.342343  0.029104  1
  C  C23  1  0.843210  0.157657  0.529104  1
  C  C24  1  0.156790  0.842343  0.470896  1
  H  H25  1  0.474064  0.305209  0.980489  1
  H  H26  1  0.525936  0.694791  0.019511  1
  H  H27  1  0.525936  0.805209  0.519511  1
  H  H28  1  0.474064  0.194791  0.480489  1
  H  H29  1  0.151216  0.304709  0.786459  1
  H  H30  1  0.848784  0.695291  0.213541  1
  H  H31  1  0.848784  0.804709  0.713541  1
  H  H32  1  0.151216  0.195291  0.286459  1
  H  H33  1  0.103162  0.426228  0.445895  1
  H  H34  1  0.896838  0.573772  0.554105  1
  H  H35  1  0.896838  0.926228  0.054105  1
  H  H36  1  0.103162  0.073772  0.945895  1
  H  H37  1  0.005506  0.633949  0.917832  1
  H  H38  1  0.994494  0.366051  0.082168  1
  H  H39  1  0.994494  0.133949  0.582168  1
  H  H40  1  0.005506  0.866051  0.417832  1
  H  H41  1  0.173525  0.769012  0.016067  1
  H  H42  1  0.826475  0.230988  0.983933  1
  H  H43  1  0.826475  0.269012  0.483933  1
  H  H44  1  0.173525  0.730988  0.516067  1
  H  H45  1  0.255497  0.632311  0.848253  1
  H  H46  1  0.744503  0.367689  0.151747  1
  H  H47  1  0.744503  0.132311  0.651747  1
  H  H48  1  0.255497  0.867689  0.348253  1
  O  O49  1  0.196570  0.566961  0.152431  1
  O  O50  1  0.803430  0.433039  0.847569  1
  O  O51  1  0.803430  0.066961  0.347569  1
  O  O52  1  0.196570  0.933039  0.652431  1
 
# Source:                            Grazulis_etal:NucleicAcidsRes.40.D420(2012)                                     
# Class:                             organic_molec_crystal                                                           
# Label:                             COD-2238762                                                                     
# Structure prediction method used:  NA                                                                              
# Number of atoms:                    52
# Number of atom types:                3
# Atom types:                         C  H  O
# Dielectric constant, electronic:   3.30848E+00
# Dielectric constant, ionic:        3.88806E-01
# Dielectric constant, total:        3.69729E+00
# Band gap at the GGA level (eV):    2.47170E+00
# Band gap at the HSE06 level (eV):  3.36640E+00
# Atomization energy (eV/atom):     -5.90731E+00
# Volume of the unit cell (A^3):     4.10368E+02
