# generated using pymatgen
data_H4C3O
_symmetry_space_group_name_H-M   'P 1'
_cell_length_a   6.76234448
_cell_length_b   6.76234448
_cell_length_c   6.42723334
_cell_angle_alpha   93.58467791
_cell_angle_beta   93.58467791
_cell_angle_gamma   53.83878663
_symmetry_Int_Tables_number   1
_chemical_formula_structural   H4C3O
_chemical_formula_sum   'H16 C12 O4'
_cell_volume   236.709389945
_cell_formula_units_Z   4
loop_
 _symmetry_equiv_pos_site_id
 _symmetry_equiv_pos_as_xyz
  1  'x, y, z'
loop_
 _atom_site_type_symbol
 _atom_site_label
 _atom_site_symmetry_multiplicity
 _atom_site_fract_x
 _atom_site_fract_y
 _atom_site_fract_z
 _atom_site_occupancy
  C  C1  1  0.694118  0.694118  0.122908  1
  C  C2  1  0.305882  0.305882  0.877092  1
  C  C3  1  0.791128  0.791128  0.263930  1
  C  C4  1  0.208872  0.208872  0.736070  1
  C  C5  1  0.757506  0.757506  0.463741  1
  C  C6  1  0.242494  0.242494  0.536259  1
  C  C7  1  0.632645  0.632645  0.472828  1
  C  C8  1  0.367355  0.367355  0.527172  1
  C  C9  1  0.589917  0.589917  0.241549  1
  C  C10  1  0.410083  0.410083  0.758451  1
  C  C11  1  0.906374  0.906374  0.192835  1
  C  C12  1  0.093626  0.093626  0.807165  1
  H  H13  1  0.783696  0.783696  0.765010  1
  H  H14  1  0.216304  0.216304  0.234990  1
  H  H15  1  0.462959  0.748478  0.557192  1
  H  H16  1  0.537041  0.251522  0.442808  1
  H  H17  1  0.251522  0.537041  0.442808  1
  H  H18  1  0.748478  0.462959  0.557192  1
  H  H19  1  0.396383  0.682816  0.199092  1
  H  H20  1  0.603617  0.317184  0.800908  1
  H  H21  1  0.317184  0.603617  0.800908  1
  H  H22  1  0.682816  0.396383  0.199092  1
  H  H23  1  0.969727  0.969727  0.322665  1
  H  H24  1  0.030273  0.030273  0.677335  1
  H  H25  1  0.775016  0.062625  0.096403  1
  H  H26  1  0.224984  0.937375  0.903597  1
  H  H27  1  0.937375  0.224984  0.903597  1
  H  H28  1  0.062625  0.775016  0.096403  1
  O  O29  1  0.691053  0.691053  0.926089  1
  O  O30  1  0.308947  0.308947  0.073911  1
  O  O31  1  0.827725  0.827725  0.634689  1
  O  O32  1  0.172275  0.172275  0.365311  1
 
# Source:                            Grazulis_etal:NucleicAcidsRes.40.D420(2012)                                     
# Class:                             organic_molec_crystal                                                           
# Label:                             COD-2310129                                                                     
# Structure prediction method used:  NA                                                                              
# Number of atoms:                    32
# Number of atom types:                3
# Atom types:                         C  H  O
# Dielectric constant, electronic:   3.07829E+00
# Dielectric constant, ionic:        9.77226E-01
# Dielectric constant, total:        4.05552E+00
# Band gap at the GGA level (eV):    2.88060E+00
# Band gap at the HSE06 level (eV):  4.05620E+00
# Atomization energy (eV/atom):     -5.67072E+00
# Volume of the unit cell (A^3):     2.36709E+02
