# generated using pymatgen
data_H2C3O
_symmetry_space_group_name_H-M   'P 1'
_cell_length_a   4.65721273
_cell_length_b   5.86607024
_cell_length_c   14.66296278
_cell_angle_alpha   90.00000000
_cell_angle_beta   99.62546607
_cell_angle_gamma   90.00000000
_symmetry_Int_Tables_number   1
_chemical_formula_structural   H2C3O
_chemical_formula_sum   'H16 C24 O8'
_cell_volume   394.94584026
_cell_formula_units_Z   8
loop_
 _symmetry_equiv_pos_site_id
 _symmetry_equiv_pos_as_xyz
  1  'x, y, z'
loop_
 _atom_site_type_symbol
 _atom_site_label
 _atom_site_symmetry_multiplicity
 _atom_site_fract_x
 _atom_site_fract_y
 _atom_site_fract_z
 _atom_site_occupancy
  C  C1  1  0.270986  0.234473  0.478983  1
  C  C2  1  0.729014  0.765527  0.521017  1
  C  C3  1  0.729014  0.734473  0.021017  1
  C  C4  1  0.270986  0.265527  0.978983  1
  C  C5  1  0.068593  0.528621  0.369532  1
  C  C6  1  0.931407  0.471379  0.630468  1
  C  C7  1  0.931407  0.028621  0.130468  1
  C  C8  1  0.068593  0.971379  0.869532  1
  C  C9  1  0.839679  0.614461  0.298329  1
  C  C10  1  0.160321  0.385539  0.701671  1
  C  C11  1  0.160321  0.114461  0.201671  1
  C  C12  1  0.839679  0.885539  0.798329  1
  C  C13  1  0.289384  0.677997  0.407170  1
  C  C14  1  0.710616  0.322003  0.592830  1
  C  C15  1  0.710616  0.177997  0.092830  1
  C  C16  1  0.289384  0.822003  0.907170  1
  C  C17  1  0.494180  0.386534  0.518325  1
  C  C18  1  0.505820  0.613466  0.481675  1
  C  C19  1  0.505820  0.886534  0.981675  1
  C  C20  1  0.494180  0.113466  0.018325  1
  C  C21  1  0.063472  0.301277  0.405578  1
  C  C22  1  0.936528  0.698723  0.594422  1
  C  C23  1  0.936528  0.801277  0.094422  1
  C  C24  1  0.063472  0.198723  0.905578  1
  H  H25  1  0.853697  0.795060  0.280552  1
  H  H26  1  0.146303  0.204940  0.719448  1
  H  H27  1  0.146303  0.295060  0.219448  1
  H  H28  1  0.853697  0.704940  0.780552  1
  H  H29  1  0.293173  0.847493  0.378422  1
  H  H30  1  0.706827  0.152507  0.621578  1
  H  H31  1  0.706827  0.347493  0.121578  1
  H  H32  1  0.293173  0.652507  0.878422  1
  H  H33  1  0.706682  0.215717  0.321237  1
  H  H34  1  0.293318  0.784283  0.678763  1
  H  H35  1  0.293318  0.715717  0.178763  1
  H  H36  1  0.706682  0.284283  0.821237  1
  H  H37  1  0.258453  0.067802  0.509444  1
  H  H38  1  0.741547  0.932198  0.490556  1
  H  H39  1  0.741547  0.567802  0.990556  1
  H  H40  1  0.258453  0.432198  0.009444  1
  O  O41  1  0.854244  0.145515  0.369555  1
  O  O42  1  0.145756  0.854485  0.630445  1
  O  O43  1  0.145756  0.645515  0.130445  1
  O  O44  1  0.854244  0.354485  0.869555  1
  O  O45  1  0.628058  0.498447  0.260265  1
  O  O46  1  0.371942  0.501553  0.739735  1
  O  O47  1  0.371942  0.998447  0.239735  1
  O  O48  1  0.628058  0.001553  0.760265  1
 
# Source:                            Grazulis_etal:NucleicAcidsRes.40.D420(2012)                                     
# Class:                             organic_molec_crystal                                                           
# Label:                             COD-4024277                                                                     
# Structure prediction method used:  NA                                                                              
# Number of atoms:                    48
# Number of atom types:                3
# Atom types:                         C  H  O
# Dielectric constant, electronic:   4.22053E+00
# Dielectric constant, ionic:        1.07085E+00
# Dielectric constant, total:        5.29138E+00
# Band gap at the GGA level (eV):    9.13100E-01
# Band gap at the HSE06 level (eV):  1.66010E+00
# Atomization energy (eV/atom):     -6.34662E+00
# Volume of the unit cell (A^3):     3.94946E+02
