# generated using pymatgen
data_H12C9O
_symmetry_space_group_name_H-M   'P 1'
_cell_length_a   6.69902818
_cell_length_b   7.75895759
_cell_length_c   7.86618984
_cell_angle_alpha   90.69069174
_cell_angle_beta   114.03897784
_cell_angle_gamma   115.21758092
_symmetry_Int_Tables_number   1
_chemical_formula_structural   H12C9O
_chemical_formula_sum   'H24 C18 O2'
_cell_volume   329.181862999
_cell_formula_units_Z   2
loop_
 _symmetry_equiv_pos_site_id
 _symmetry_equiv_pos_as_xyz
  1  'x, y, z'
loop_
 _atom_site_type_symbol
 _atom_site_label
 _atom_site_symmetry_multiplicity
 _atom_site_fract_x
 _atom_site_fract_y
 _atom_site_fract_z
 _atom_site_occupancy
  C  C1  1  0.119175  0.511753  0.565546  1
  C  C2  1  0.880825  0.488247  0.434454  1
  C  C3  1  0.280201  0.673419  0.725108  1
  C  C4  1  0.719799  0.326581  0.274892  1
  C  C5  1  0.206047  0.807508  0.752850  1
  C  C6  1  0.793953  0.192492  0.247150  1
  C  C7  1  0.972001  0.788007  0.625911  1
  C  C8  1  0.027999  0.211993  0.374089  1
  C  C9  1  0.811666  0.631132  0.469539  1
  C  C10  1  0.188334  0.368868  0.530461  1
  C  C11  1  0.506093  0.746062  0.365724  1
  C  C12  1  0.493907  0.253938  0.634276  1
  C  C13  1  0.252659  0.687637  0.201303  1
  C  C14  1  0.747341  0.312363  0.798697  1
  C  C15  1  0.161221  0.835497  0.218317  1
  C  C16  1  0.838779  0.164503  0.781683  1
  C  C17  1  0.893046  0.769521  0.067451  1
  C  C18  1  0.106954  0.230479  0.932549  1
  H  H19  1  0.458104  0.687848  0.823763  1
  H  H20  1  0.541896  0.312152  0.176237  1
  H  H21  1  0.327570  0.930742  0.875079  1
  H  H22  1  0.672430  0.069258  0.124921  1
  H  H23  1  0.920367  0.895764  0.652273  1
  H  H24  1  0.079633  0.104236  0.347727  1
  H  H25  1  0.644486  0.888874  0.368770  1
  H  H26  1  0.355514  0.111126  0.631230  1
  H  H27  1  0.502245  0.750904  0.503371  1
  H  H28  1  0.497755  0.249096  0.496629  1
  H  H29  1  0.121233  0.542291  0.199881  1
  H  H30  1  0.878767  0.457709  0.800119  1
  H  H31  1  0.262652  0.677268  0.066525  1
  H  H32  1  0.737348  0.322732  0.933475  1
  H  H33  1  0.285018  0.978107  0.206504  1
  H  H34  1  0.714982  0.021893  0.793496  1
  H  H35  1  0.174831  0.856803  0.361433  1
  H  H36  1  0.825169  0.143197  0.638567  1
  H  H37  1  0.873742  0.749608  0.922800  1
  H  H38  1  0.126258  0.250392  0.077200  1
  H  H39  1  0.833686  0.877635  0.083053  1
  H  H40  1  0.166314  0.122365  0.916947  1
  H  H41  1  0.764347  0.630584  0.080023  1
  H  H42  1  0.235653  0.369416  0.919977  1
  O  O43  1  0.580569  0.599580  0.338510  1
  O  O44  1  0.419431  0.400420  0.661490  1
 
# Source:                            Grazulis_etal:NucleicAcidsRes.40.D420(2012)                                     
# Class:                             organic_molec_crystal                                                           
# Label:                             COD-4025806                                                                     
# Structure prediction method used:  NA                                                                              
# Number of atoms:                    44
# Number of atom types:                3
# Atom types:                         C  H  O
# Dielectric constant, electronic:   3.10640E+00
# Dielectric constant, ionic:        2.10998E-01
# Dielectric constant, total:        3.31740E+00
# Band gap at the GGA level (eV):    2.62100E+00
# Band gap at the HSE06 level (eV):  3.56000E+00
# Atomization energy (eV/atom):     -5.60127E+00
# Volume of the unit cell (A^3):     3.29182E+02
