# generated using pymatgen
data_H16(C3O)3
_symmetry_space_group_name_H-M   'P 1'
_cell_length_a   4.47265745
_cell_length_b   11.15787000
_cell_length_c   8.14896275
_cell_angle_alpha   90.00000000
_cell_angle_beta   99.22910915
_cell_angle_gamma   90.00000000
_symmetry_Int_Tables_number   1
_chemical_formula_structural   H16(C3O)3
_chemical_formula_sum   'H32 C18 O6'
_cell_volume   401.412211704
_cell_formula_units_Z   2
loop_
 _symmetry_equiv_pos_site_id
 _symmetry_equiv_pos_as_xyz
  1  'x, y, z'
loop_
 _atom_site_type_symbol
 _atom_site_label
 _atom_site_symmetry_multiplicity
 _atom_site_fract_x
 _atom_site_fract_y
 _atom_site_fract_z
 _atom_site_occupancy
  C  C1  1  0.817939  0.462084  0.297516  1
  C  C2  1  0.182061  0.962084  0.702484  1
  C  C3  1  0.893229  0.329249  0.334607  1
  C  C4  1  0.106771  0.829249  0.665393  1
  C  C5  1  0.052121  0.314183  0.519746  1
  C  C6  1  0.947879  0.814183  0.480254  1
  C  C7  1  0.033093  0.431336  0.618842  1
  C  C8  1  0.966907  0.931336  0.381158  1
  C  C9  1  0.191100  0.524866  0.530460  1
  C  C10  1  0.808900  0.024866  0.469540  1
  C  C11  1  0.729898  0.496297  0.116433  1
  C  C12  1  0.270102  0.996297  0.883567  1
  C  C13  1  0.597496  0.622958  0.091292  1
  C  C14  1  0.402504  0.122958  0.908708  1
  C  C15  1  0.059980  0.268459  0.206105  1
  C  C16  1  0.940020  0.768459  0.793895  1
  C  C17  1  0.171511  0.421154  0.801222  1
  C  C18  1  0.828489  0.921154  0.198778  1
  H  H19  1  0.534448  0.642761  0.958905  1
  H  H20  1  0.465552  0.142761  0.041095  1
  H  H21  1  0.263686  0.317118  0.187740  1
  H  H22  1  0.736314  0.817118  0.812260  1
  H  H23  1  0.911542  0.262704  0.085962  1
  H  H24  1  0.088458  0.762704  0.914038  1
  H  H25  1  0.127653  0.177170  0.243610  1
  H  H26  1  0.872347  0.677170  0.756390  1
  H  H27  1  0.171055  0.508342  0.861501  1
  H  H28  1  0.828945  0.008342  0.138499  1
  H  H29  1  0.404226  0.388898  0.814096  1
  H  H30  1  0.595774  0.888898  0.185904  1
  H  H31  1  0.038599  0.358518  0.863041  1
  H  H32  1  0.961401  0.858518  0.136959  1
  H  H33  1  0.413062  0.208080  0.500194  1
  H  H34  1  0.586938  0.708080  0.499806  1
  H  H35  1  0.638519  0.490009  0.365019  1
  H  H36  1  0.361481  0.990009  0.634981  1
  H  H37  1  0.674222  0.285631  0.326669  1
  H  H38  1  0.325778  0.785631  0.673331  1
  H  H39  1  0.942396  0.243259  0.580089  1
  H  H40  1  0.057604  0.743259  0.419911  1
  H  H41  1  0.794291  0.455079  0.609368  1
  H  H42  1  0.205709  0.955079  0.390632  1
  H  H43  1  0.564437  0.429904  0.060981  1
  H  H44  1  0.435563  0.929904  0.939019  1
  H  H45  1  0.926739  0.487440  0.053898  1
  H  H46  1  0.073261  0.987440  0.946102  1
  H  H47  1  0.764697  0.688868  0.144891  1
  H  H48  1  0.235303  0.188868  0.855109  1
  H  H49  1  0.397443  0.633311  0.151972  1
  H  H50  1  0.602557  0.133311  0.848028  1
  O  O51  1  0.374462  0.289817  0.536712  1
  O  O52  1  0.625538  0.789817  0.463288  1
  O  O53  1  0.412955  0.583779  0.595705  1
  O  O54  1  0.587045  0.083779  0.404295  1
  O  O55  1  0.089207  0.538427  0.365694  1
  O  O56  1  0.910793  0.038427  0.634306  1
 
# Source:                            Grazulis_etal:NucleicAcidsRes.40.D420(2012)                                     
# Class:                             organic_molec_crystal                                                           
# Label:                             COD-4026008                                                                     
# Structure prediction method used:  NA                                                                              
# Number of atoms:                    56
# Number of atom types:                3
# Atom types:                         C  H  O
# Dielectric constant, electronic:   2.62868E+00
# Dielectric constant, ionic:        3.04942E+00
# Dielectric constant, total:        5.67811E+00
# Band gap at the GGA level (eV):    4.44940E+00
# Band gap at the HSE06 level (eV):  6.32000E+00
# Atomization energy (eV/atom):     -5.36340E+00
# Volume of the unit cell (A^3):     4.01412E+02
