# generated using pymatgen
data_H14C11O4
_symmetry_space_group_name_H-M   'P 1'
_cell_length_a   6.50089301
_cell_length_b   6.64749500
_cell_length_c   10.34257570
_cell_angle_alpha   90.00000000
_cell_angle_beta   99.70214525
_cell_angle_gamma   90.00000000
_symmetry_Int_Tables_number   1
_chemical_formula_structural   H14C11O4
_chemical_formula_sum   'H28 C22 O8'
_cell_volume   440.558161808
_cell_formula_units_Z   2
loop_
 _symmetry_equiv_pos_site_id
 _symmetry_equiv_pos_as_xyz
  1  'x, y, z'
loop_
 _atom_site_type_symbol
 _atom_site_label
 _atom_site_symmetry_multiplicity
 _atom_site_fract_x
 _atom_site_fract_y
 _atom_site_fract_z
 _atom_site_occupancy
  C  C1  1  0.764204  0.486498  0.174116  1
  C  C2  1  0.235796  0.986498  0.825884  1
  C  C3  1  0.925011  0.657696  0.192076  1
  C  C4  1  0.074989  0.157696  0.807924  1
  C  C5  1  0.829875  0.809314  0.086407  1
  C  C6  1  0.170125  0.309314  0.913593  1
  C  C7  1  0.596597  0.793538  0.093788  1
  C  C8  1  0.403403  0.293538  0.906212  1
  C  C9  1  0.529917  0.945951  0.187948  1
  C  C10  1  0.470083  0.445951  0.812052  1
  C  C11  1  0.768989  0.353582  0.292348  1
  C  C12  1  0.231011  0.853582  0.707652  1
  C  C13  1  0.939154  0.223887  0.329285  1
  C  C14  1  0.060846  0.723887  0.670715  1
  C  C15  1  0.944534  0.097658  0.437229  1
  C  C16  1  0.055466  0.597658  0.562771  1
  C  C17  1  0.779095  0.098413  0.508119  1
  C  C18  1  0.220905  0.598413  0.491881  1
  C  C19  1  0.609706  0.227570  0.471926  1
  C  C20  1  0.390294  0.727570  0.528074  1
  C  C21  1  0.604726  0.354683  0.363899  1
  C  C22  1  0.395274  0.854683  0.636101  1
  H  H23  1  0.793086  0.394535  0.090462  1
  H  H24  1  0.206914  0.894535  0.909538  1
  H  H25  1  0.930822  0.727775  0.288743  1
  H  H26  1  0.069178  0.227775  0.711257  1
  H  H27  1  0.889650  0.962057  0.105073  1
  H  H28  1  0.110350  0.462057  0.894927  1
  H  H29  1  0.503943  0.810679  0.996675  1
  H  H30  1  0.496057  0.310679  0.003325  1
  H  H31  1  0.567467  0.096123  0.157093  1
  H  H32  1  0.432533  0.596123  0.842907  1
  H  H33  1  0.612059  0.919438  0.287455  1
  H  H34  1  0.387941  0.419438  0.712545  1
  H  H35  1  0.067693  0.220136  0.275049  1
  H  H36  1  0.932307  0.720136  0.724951  1
  H  H37  1  0.076920  0.998998  0.464943  1
  H  H38  1  0.923080  0.498998  0.535057  1
  H  H39  1  0.784040  0.999518  0.591228  1
  H  H40  1  0.215960  0.499518  0.408772  1
  H  H41  1  0.480890  0.228439  0.526411  1
  H  H42  1  0.519110  0.728439  0.473589  1
  H  H43  1  0.472639  0.451409  0.331786  1
  H  H44  1  0.527361  0.951409  0.668214  1
  H  H45  1  0.857483  0.867101  0.903225  1
  H  H46  1  0.142517  0.367101  0.096775  1
  H  H47  1  0.221482  0.697564  0.182071  1
  H  H48  1  0.778518  0.197564  0.817929  1
  H  H49  1  0.237813  0.039037  0.131082  1
  H  H50  1  0.762187  0.539037  0.868918  1
  O  O51  1  0.872505  0.744357  0.959553  1
  O  O52  1  0.127495  0.244357  0.040447  1
  O  O53  1  0.126324  0.579866  0.180110  1
  O  O54  1  0.873676  0.079866  0.819890  1
  O  O55  1  0.563304  0.587479  0.139640  1
  O  O56  1  0.436696  0.087479  0.860360  1
  O  O57  1  0.308417  0.936597  0.192976  1
  O  O58  1  0.691583  0.436597  0.807024  1
 
# Source:                            Grazulis_etal:NucleicAcidsRes.40.D420(2012)                                     
# Class:                             organic_molec_crystal                                                           
# Label:                             COD-4026603                                                                     
# Structure prediction method used:  NA                                                                              
# Number of atoms:                    58
# Number of atom types:                3
# Atom types:                         C  H  O
# Dielectric constant, electronic:   2.89972E+00
# Dielectric constant, ionic:        4.73827E-01
# Dielectric constant, total:        3.37354E+00
# Band gap at the GGA level (eV):    4.11710E+00
# Band gap at the HSE06 level (eV):  5.26090E+00
# Atomization energy (eV/atom):     -5.67883E+00
# Volume of the unit cell (A^3):     4.40558E+02
