# generated using pymatgen
data_H4C2O
_symmetry_space_group_name_H-M   'P 1'
_cell_length_a   5.48471808
_cell_length_b   8.39452800
_cell_length_c   8.53000363
_cell_angle_alpha   90.00000000
_cell_angle_beta   103.31890542
_cell_angle_gamma   90.00000000
_symmetry_Int_Tables_number   1
_chemical_formula_structural   H4C2O
_chemical_formula_sum   'H32 C16 O8'
_cell_volume   382.171748995
_cell_formula_units_Z   8
loop_
 _symmetry_equiv_pos_site_id
 _symmetry_equiv_pos_as_xyz
  1  'x, y, z'
loop_
 _atom_site_type_symbol
 _atom_site_label
 _atom_site_symmetry_multiplicity
 _atom_site_fract_x
 _atom_site_fract_y
 _atom_site_fract_z
 _atom_site_occupancy
  C  C1  1  0.332318  0.354087  0.351079  1
  C  C2  1  0.667682  0.854087  0.648921  1
  C  C3  1  0.399632  0.328432  0.531374  1
  C  C4  1  0.600368  0.828432  0.468626  1
  C  C5  1  0.362222  0.502161  0.748827  1
  C  C6  1  0.637778  0.002161  0.251173  1
  C  C7  1  0.239203  0.342005  0.773240  1
  C  C8  1  0.760797  0.842005  0.226760  1
  C  C9  1  0.174589  0.279826  0.598579  1
  C  C10  1  0.825411  0.779826  0.401421  1
  C  C11  1  0.429074  0.232304  0.884360  1
  C  C12  1  0.570926  0.732304  0.115640  1
  C  C13  1  0.998529  0.356655  0.834823  1
  C  C14  1  0.001471  0.856655  0.165177  1
  C  C15  1  0.022587  0.455505  0.988755  1
  C  C16  1  0.977413  0.955505  0.011245  1
  H  H17  1  0.243750  0.246738  0.291140  1
  H  H18  1  0.756250  0.746738  0.708860  1
  H  H19  1  0.200413  0.453438  0.322681  1
  H  H20  1  0.799587  0.953438  0.677319  1
  H  H21  1  0.551805  0.241145  0.564548  1
  H  H22  1  0.448195  0.741145  0.435452  1
  H  H23  1  0.509227  0.540386  0.851089  1
  H  H24  1  0.490773  0.040386  0.148911  1
  H  H25  1  0.006633  0.341464  0.531233  1
  H  H26  1  0.993367  0.841464  0.468767  1
  H  H27  1  0.591015  0.206241  0.835326  1
  H  H28  1  0.408985  0.706241  0.164674  1
  H  H29  1  0.340186  0.119260  0.899818  1
  H  H30  1  0.659814  0.619260  0.100182  1
  H  H31  1  0.495499  0.287603  0.002439  1
  H  H32  1  0.504501  0.787603  0.997561  1
  H  H33  1  0.851297  0.407645  0.740302  1
  H  H34  1  0.148703  0.907645  0.259698  1
  H  H35  1  0.942769  0.234855  0.854061  1
  H  H36  1  0.057231  0.734855  0.145939  1
  H  H37  1  0.990508  0.581057  0.957732  1
  H  H38  1  0.009492  0.081057  0.042268  1
  H  H39  1  0.209112  0.445435  0.067077  1
  H  H40  1  0.790888  0.945435  0.932923  1
  H  H41  1  0.886839  0.417589  0.057279  1
  H  H42  1  0.113161  0.917589  0.942721  1
  H  H43  1  0.647749  0.476745  0.339692  1
  H  H44  1  0.352251  0.976745  0.660308  1
  H  H45  1  0.267205  0.728179  0.711560  1
  H  H46  1  0.732795  0.228179  0.288440  1
  H  H47  1  0.015672  0.095108  0.478618  1
  H  H48  1  0.984328  0.595108  0.521382  1
  O  O49  1  0.549799  0.384743  0.284592  1
  O  O50  1  0.450201  0.884743  0.715408  1
  O  O51  1  0.480488  0.480594  0.612818  1
  O  O52  1  0.519512  0.980594  0.387182  1
  O  O53  1  0.175758  0.624614  0.711065  1
  O  O54  1  0.824242  0.124614  0.288935  1
  O  O55  1  0.120459  0.111534  0.589216  1
  O  O56  1  0.879541  0.611534  0.410784  1
 
# Source:                            Grazulis_etal:NucleicAcidsRes.40.D420(2012)                                     
# Class:                             organic_molec_crystal                                                           
# Label:                             COD-4027030                                                                     
# Structure prediction method used:  NA                                                                              
# Number of atoms:                    56
# Number of atom types:                3
# Atom types:                         C  H  O
# Dielectric constant, electronic:   2.66315E+00
# Dielectric constant, ionic:        5.00957E-01
# Dielectric constant, total:        3.16411E+00
# Band gap at the GGA level (eV):    6.01710E+00
# Band gap at the HSE06 level (eV):  7.87250E+00
# Atomization energy (eV/atom):     -5.27091E+00
# Volume of the unit cell (A^3):     3.82172E+02
