# generated using pymatgen
data_H8C9O4
_symmetry_space_group_name_H-M   'P 1'
_cell_length_a   6.22870460
_cell_length_b   6.96823237
_cell_length_c   8.75661849
_cell_angle_alpha   89.16563392
_cell_angle_beta   86.10900744
_cell_angle_gamma   68.65671931
_symmetry_Int_Tables_number   1
_chemical_formula_structural   H8C9O4
_chemical_formula_sum   'H16 C18 O8'
_cell_volume   353.16096107
_cell_formula_units_Z   2
loop_
 _symmetry_equiv_pos_site_id
 _symmetry_equiv_pos_as_xyz
  1  'x, y, z'
loop_
 _atom_site_type_symbol
 _atom_site_label
 _atom_site_symmetry_multiplicity
 _atom_site_fract_x
 _atom_site_fract_y
 _atom_site_fract_z
 _atom_site_occupancy
  C  C1  1  0.814337  0.341896  0.811603  1
  C  C2  1  0.185663  0.658104  0.188397  1
  C  C3  1  0.858978  0.212790  0.662379  1
  C  C4  1  0.141022  0.787210  0.337621  1
  C  C5  1  0.705341  0.101053  0.678756  1
  C  C6  1  0.294659  0.898947  0.321244  1
  C  C7  1  0.596360  0.143924  0.820509  1
  C  C8  1  0.403640  0.856076  0.179491  1
  C  C9  1  0.039217  0.290928  0.889293  1
  C  C10  1  0.960783  0.709072  0.110707  1
  C  C11  1  0.978251  0.591081  0.747512  1
  C  C12  1  0.021749  0.408919  0.252488  1
  C  C13  1  0.739822  0.575469  0.783158  1
  C  C14  1  0.260178  0.424531  0.216842  1
  C  C15  1  0.569796  0.661258  0.663376  1
  C  C16  1  0.430204  0.338742  0.336624  1
  C  C17  1  0.355086  0.789862  0.700942  1
  C  C18  1  0.644914  0.210138  0.299058  1
  H  H19  1  0.687949  0.995327  0.596740  1
  H  H20  1  0.312051  0.004673  0.403260  1
  H  H21  1  0.476731  0.083398  0.877877  1
  H  H22  1  0.523269  0.916602  0.122123  1
  H  H23  1  0.984367  0.737640  0.780563  1
  H  H24  1  0.015633  0.262360  0.219437  1
  H  H25  1  0.045295  0.550356  0.630221  1
  H  H26  1  0.954705  0.449644  0.369779  1
  H  H27  1  0.665641  0.651489  0.892744  1
  H  H28  1  0.334359  0.348511  0.107256  1
  H  H29  1  0.628155  0.616720  0.544552  1
  H  H30  1  0.371845  0.383280  0.455448  1
  H  H31  1  0.297492  0.833915  0.819385  1
  H  H32  1  0.702508  0.166085  0.180615  1
  H  H33  1  0.230218  0.852335  0.616703  1
  H  H34  1  0.769782  0.147665  0.383297  1
  O  O35  1  0.003856  0.216194  0.558932  1
  O  O36  1  0.996144  0.783806  0.441068  1
  O  O37  1  0.130642  0.145263  0.971436  1
  O  O38  1  0.869358  0.854737  0.028564  1
  O  O39  1  0.135141  0.432438  0.847765  1
  O  O40  1  0.864859  0.567562  0.152235  1
  O  O41  1  0.647004  0.283067  0.905080  1
  O  O42  1  0.352996  0.716933  0.094920  1
 
# Source:                            Grazulis_etal:NucleicAcidsRes.40.D420(2012)                                     
# Class:                             organic_molec_crystal                                                           
# Label:                             COD-4030004                                                                     
# Structure prediction method used:  NA                                                                              
# Number of atoms:                    42
# Number of atom types:                3
# Atom types:                         C  H  O
# Dielectric constant, electronic:   2.91026E+00
# Dielectric constant, ionic:        5.67942E-01
# Dielectric constant, total:        3.47820E+00
# Band gap at the GGA level (eV):    3.15010E+00
# Band gap at the HSE06 level (eV):  4.52960E+00
# Atomization energy (eV/atom):     -5.99147E+00
# Volume of the unit cell (A^3):     3.53161E+02
