# generated using pymatgen
data_H3C2O
_symmetry_space_group_name_H-M   'P 1'
_cell_length_a   6.28674455
_cell_length_b   8.20550993
_cell_length_c   8.42023595
_cell_angle_alpha   64.28513697
_cell_angle_beta   75.37104289
_cell_angle_gamma   71.32685750
_symmetry_Int_Tables_number   1
_chemical_formula_structural   H3C2O
_chemical_formula_sum   'H24 C16 O8'
_cell_volume   367.447161214
_cell_formula_units_Z   8
loop_
 _symmetry_equiv_pos_site_id
 _symmetry_equiv_pos_as_xyz
  1  'x, y, z'
loop_
 _atom_site_type_symbol
 _atom_site_label
 _atom_site_symmetry_multiplicity
 _atom_site_fract_x
 _atom_site_fract_y
 _atom_site_fract_z
 _atom_site_occupancy
  C  C1  1  0.355675  0.789310  0.857685  1
  C  C2  1  0.644325  0.210690  0.142315  1
  C  C3  1  0.516741  0.742977  0.989547  1
  C  C4  1  0.483259  0.257023  0.010453  1
  C  C5  1  0.324168  0.910362  0.961776  1
  C  C6  1  0.675832  0.089638  0.038224  1
  C  C7  1  0.194809  0.673275  0.912529  1
  C  C8  1  0.805191  0.326725  0.087471  1
  C  C9  1  0.184187  0.280822  0.606211  1
  C  C10  1  0.815813  0.719178  0.393789  1
  C  C11  1  0.438019  0.268017  0.579290  1
  C  C12  1  0.561981  0.731983  0.420710  1
  C  C13  1  0.291339  0.433542  0.459162  1
  C  C14  1  0.708661  0.566458  0.540838  1
  C  C15  1  0.114447  0.157752  0.556322  1
  C  C16  1  0.885553  0.842248  0.443678  1
  H  H17  1  0.423493  0.839516  0.718773  1
  H  H18  1  0.576507  0.160484  0.281227  1
  H  H19  1  0.049553  0.553462  0.834117  1
  H  H20  1  0.950447  0.446538  0.165883  1
  H  H21  1  0.505602  0.622898  0.112189  1
  H  H22  1  0.494398  0.377102  0.887811  1
  H  H23  1  0.685751  0.761355  0.929212  1
  H  H24  1  0.314249  0.238645  0.070788  1
  H  H25  1  0.360084  0.045192  0.885687  1
  H  H26  1  0.639916  0.954808  0.114313  1
  H  H27  1  0.181421  0.904705  0.065378  1
  H  H28  1  0.818579  0.095295  0.934622  1
  H  H29  1  0.082116  0.308674  0.719691  1
  H  H30  1  0.917884  0.691326  0.280309  1
  H  H31  1  0.890504  0.010221  0.625219  1
  H  H32  1  0.109496  0.989779  0.374781  1
  H  H33  1  0.548508  0.164587  0.529611  1
  H  H34  1  0.451492  0.835413  0.470389  1
  H  H35  1  0.497240  0.281399  0.681718  1
  H  H36  1  0.502760  0.718601  0.318282  1
  H  H37  1  0.249058  0.562141  0.478874  1
  H  H38  1  0.750942  0.437859  0.521126  1
  H  H39  1  0.298364  0.446936  0.324431  1
  H  H40  1  0.701636  0.553064  0.675569  1
  O  O41  1  0.102670  0.608075  0.069043  1
  O  O42  1  0.897330  0.391925  0.930957  1
  O  O43  1  0.154860  0.639885  0.780733  1
  O  O44  1  0.845140  0.360115  0.219267  1
  O  O45  1  0.210787  0.115010  0.425527  1
  O  O46  1  0.789213  0.884990  0.574473  1
  O  O47  1  0.937246  0.093182  0.664723  1
  O  O48  1  0.062754  0.906818  0.335277  1
 
# Source:                            Grazulis_etal:NucleicAcidsRes.40.D420(2012)                                     
# Class:                             organic_molec_crystal                                                           
# Label:                             COD-5000274                                                                     
# Structure prediction method used:  NA                                                                              
# Number of atoms:                    48
# Number of atom types:                3
# Atom types:                         C  H  O
# Dielectric constant, electronic:   2.68020E+00
# Dielectric constant, ionic:        5.97959E-01
# Dielectric constant, total:        3.27816E+00
# Band gap at the GGA level (eV):    4.89040E+00
# Band gap at the HSE06 level (eV):  6.51730E+00
# Atomization energy (eV/atom):     -5.55058E+00
# Volume of the unit cell (A^3):     3.67447E+02
