# generated using pymatgen
data_H7C4O3
_symmetry_space_group_name_H-M   'P 1'
_cell_length_a   4.47872810
_cell_length_b   6.57337982
_cell_length_c   13.28763860
_cell_angle_alpha   90.00000000
_cell_angle_beta   90.13494348
_cell_angle_gamma   90.00000000
_symmetry_Int_Tables_number   1
_chemical_formula_structural   H7C4O3
_chemical_formula_sum   'H28 C16 O12'
_cell_volume   391.192056924
_cell_formula_units_Z   4
loop_
 _symmetry_equiv_pos_site_id
 _symmetry_equiv_pos_as_xyz
  1  'x, y, z'
loop_
 _atom_site_type_symbol
 _atom_site_label
 _atom_site_symmetry_multiplicity
 _atom_site_fract_x
 _atom_site_fract_y
 _atom_site_fract_z
 _atom_site_occupancy
  C  C1  1  0.680309  0.355624  0.679709  1
  C  C2  1  0.319691  0.855624  0.320291  1
  C  C3  1  0.789991  0.174671  0.616001  1
  C  C4  1  0.210009  0.674671  0.383999  1
  C  C5  1  0.593963  0.986870  0.631864  1
  C  C6  1  0.406037  0.486870  0.368136  1
  C  C7  1  0.563349  0.944781  0.743365  1
  C  C8  1  0.436651  0.444781  0.256635  1
  C  C9  1  0.454600  0.132001  0.799858  1
  C  C10  1  0.545400  0.632001  0.200142  1
  C  C11  1  0.422525  0.082705  0.910780  1
  C  C12  1  0.577475  0.582705  0.089220  1
  C  C13  1  0.310996  0.738467  0.864964  1
  C  C14  1  0.689004  0.238467  0.135036  1
  C  C15  1  0.084769  0.572168  0.873963  1
  C  C16  1  0.915231  0.072168  0.126037  1
  H  H17  1  0.637830  0.037283  0.942839  1
  H  H18  1  0.362170  0.537283  0.057161  1
  H  H19  1  0.328677  0.209340  0.953015  1
  H  H20  1  0.671323  0.709340  0.046985  1
  H  H21  1  0.529924  0.697102  0.894724  1
  H  H22  1  0.470076  0.197102  0.105276  1
  H  H23  1  0.882604  0.614657  0.834233  1
  H  H24  1  0.117396  0.114657  0.165767  1
  H  H25  1  0.031114  0.538985  0.951985  1
  H  H26  1  0.968886  0.038985  0.048015  1
  H  H27  1  0.169683  0.435728  0.838792  1
  H  H28  1  0.830317  0.935728  0.161208  1
  H  H29  1  0.361510  0.556060  0.667945  1
  H  H30  1  0.638490  0.056060  0.332055  1
  H  H31  1  0.978882  0.276271  0.485574  1
  H  H32  1  0.021118  0.776271  0.514426  1
  H  H33  1  0.553073  0.757257  0.540438  1
  H  H34  1  0.446927  0.257257  0.459562  1
  H  H35  1  0.839098  0.481184  0.677363  1
  H  H36  1  0.160902  0.981184  0.322637  1
  H  H37  1  0.017428  0.140801  0.639508  1
  H  H38  1  0.982572  0.640801  0.360492  1
  H  H39  1  0.374427  0.014632  0.598422  1
  H  H40  1  0.625573  0.514632  0.401578  1
  H  H41  1  0.780832  0.897226  0.773263  1
  H  H42  1  0.219168  0.397226  0.226737  1
  H  H43  1  0.235328  0.176414  0.771065  1
  H  H44  1  0.764672  0.676414  0.228935  1
  O  O45  1  0.666917  0.295033  0.786088  1
  O  O46  1  0.333083  0.795033  0.213912  1
  O  O47  1  0.208039  0.915529  0.918351  1
  O  O48  1  0.791961  0.415529  0.081649  1
  O  O49  1  0.396606  0.416578  0.643831  1
  O  O50  1  0.603394  0.916578  0.356169  1
  O  O51  1  0.784752  0.223694  0.511068  1
  O  O52  1  0.215248  0.723694  0.488932  1
  O  O53  1  0.718163  0.808876  0.583687  1
  O  O54  1  0.281837  0.308876  0.416313  1
  O  O55  1  0.345545  0.782162  0.758062  1
  O  O56  1  0.654455  0.282162  0.241938  1
 
# Source:                            Grazulis_etal:NucleicAcidsRes.40.D420(2012)                                     
# Class:                             organic_molec_crystal                                                           
# Label:                             COD-7009961                                                                     
# Structure prediction method used:  NA                                                                              
# Number of atoms:                    56
# Number of atom types:                3
# Atom types:                         C  H  O
# Dielectric constant, electronic:   2.73034E+00
# Dielectric constant, ionic:        7.98617E-01
# Dielectric constant, total:        3.52896E+00
# Band gap at the GGA level (eV):    5.74880E+00
# Band gap at the HSE06 level (eV):  7.60010E+00
# Atomization energy (eV/atom):     -5.42394E+00
# Volume of the unit cell (A^3):     3.91192E+02
