# generated using pymatgen
data_H5C6O
_symmetry_space_group_name_H-M   'P 1'
_cell_length_a   6.35411322
_cell_length_b   6.99284383
_cell_length_c   9.34723039
_cell_angle_alpha   94.99941067
_cell_angle_beta   103.70526524
_cell_angle_gamma   105.07878809
_symmetry_Int_Tables_number   1
_chemical_formula_structural   H5C6O
_chemical_formula_sum   'H20 C24 O4'
_cell_volume   384.678489713
_cell_formula_units_Z   4
loop_
 _symmetry_equiv_pos_site_id
 _symmetry_equiv_pos_as_xyz
  1  'x, y, z'
loop_
 _atom_site_type_symbol
 _atom_site_label
 _atom_site_symmetry_multiplicity
 _atom_site_fract_x
 _atom_site_fract_y
 _atom_site_fract_z
 _atom_site_occupancy
  C  C1  1  0.670910  0.504921  0.734973  1
  C  C2  1  0.329090  0.495079  0.265027  1
  C  C3  1  0.804012  0.495003  0.619058  1
  C  C4  1  0.195988  0.504997  0.380942  1
  C  C5  1  0.051641  0.615968  0.700129  1
  C  C6  1  0.948359  0.384032  0.299871  1
  C  C7  1  0.394072  0.981093  0.200045  1
  C  C8  1  0.605928  0.018907  0.799955  1
  C  C9  1  0.383231  0.060484  0.338846  1
  C  C10  1  0.616769  0.939516  0.661154  1
  C  C11  1  0.175978  0.017024  0.374432  1
  C  C12  1  0.824022  0.982976  0.625568  1
  C  C13  1  0.979699  0.896240  0.270293  1
  C  C14  1  0.020301  0.103760  0.729707  1
  C  C15  1  0.770656  0.682968  0.015495  1
  C  C16  1  0.229344  0.317032  0.984505  1
  C  C17  1  0.984649  0.816172  0.128429  1
  C  C18  1  0.015351  0.183828  0.871571  1
  C  C19  1  0.195764  0.862604  0.097681  1
  C  C20  1  0.804236  0.137396  0.902319  1
  C  C21  1  0.034206  0.683527  0.852123  1
  C  C22  1  0.965794  0.316473  0.147877  1
  C  C23  1  0.824104  0.625373  0.872808  1
  C  C24  1  0.175896  0.374627  0.127192  1
  H  H25  1  0.730837  0.555395  0.521398  1
  H  H26  1  0.269163  0.444605  0.478602  1
  H  H27  1  0.789580  0.338472  0.582732  1
  H  H28  1  0.210420  0.661528  0.417268  1
  H  H29  1  0.170659  0.526931  0.705772  1
  H  H30  1  0.829341  0.473069  0.294228  1
  H  H31  1  0.114425  0.745379  0.647758  1
  H  H32  1  0.885575  0.254621  0.352242  1
  H  H33  1  0.550877  0.011698  0.168217  1
  H  H34  1  0.449123  0.988302  0.831783  1
  H  H35  1  0.534568  0.155923  0.418723  1
  H  H36  1  0.465432  0.844077  0.581277  1
  H  H37  1  0.169760  0.081008  0.482469  1
  H  H38  1  0.830240  0.918992  0.517531  1
  H  H39  1  0.818385  0.859645  0.296911  1
  H  H40  1  0.181615  0.140355  0.703089  1
  H  H41  1  0.697493  0.550899  0.061754  1
  H  H42  1  0.302507  0.449101  0.938246  1
  H  H43  1  0.639628  0.760945  0.995250  1
  H  H44  1  0.360372  0.239055  0.004750  1
  O  O45  1  0.224697  0.794724  0.957621  1
  O  O46  1  0.775303  0.205276  0.042379  1
  O  O47  1  0.464792  0.419931  0.712411  1
  O  O48  1  0.535208  0.580069  0.287589  1
 
# Source:                            Grazulis_etal:NucleicAcidsRes.40.D420(2012)                                     
# Class:                             organic_molec_crystal                                                           
# Label:                             COD-7151027                                                                     
# Structure prediction method used:  NA                                                                              
# Number of atoms:                    48
# Number of atom types:                3
# Atom types:                         C  H  O
# Dielectric constant, electronic:   3.24406E+00
# Dielectric constant, ionic:        5.45890E-01
# Dielectric constant, total:        3.78995E+00
# Band gap at the GGA level (eV):    2.83540E+00
# Band gap at the HSE06 level (eV):  3.98040E+00
# Atomization energy (eV/atom):     -6.10723E+00
# Volume of the unit cell (A^3):     3.84678E+02
