# generated using pymatgen
data_H3C2O
_symmetry_space_group_name_H-M   'P 1'
_cell_length_a   3.56994254
_cell_length_b   13.45781300
_cell_length_c   7.92586705
_cell_angle_alpha   90.00000000
_cell_angle_beta   99.08427859
_cell_angle_gamma   90.00000000
_symmetry_Int_Tables_number   1
_chemical_formula_structural   H3C2O
_chemical_formula_sum   'H24 C16 O8'
_cell_volume   376.011186193
_cell_formula_units_Z   8
loop_
 _symmetry_equiv_pos_site_id
 _symmetry_equiv_pos_as_xyz
  1  'x, y, z'
loop_
 _atom_site_type_symbol
 _atom_site_label
 _atom_site_symmetry_multiplicity
 _atom_site_fract_x
 _atom_site_fract_y
 _atom_site_fract_z
 _atom_site_occupancy
  C  C1  1  0.767027  0.417410  0.681145  1
  C  C2  1  0.232973  0.582590  0.318855  1
  C  C3  1  0.232973  0.917410  0.818855  1
  C  C4  1  0.767027  0.082590  0.181145  1
  C  C5  1  0.965356  0.352149  0.816432  1
  C  C6  1  0.034644  0.647851  0.183568  1
  C  C7  1  0.034644  0.852149  0.683568  1
  C  C8  1  0.965356  0.147851  0.316432  1
  C  C9  1  0.209099  0.391019  0.945631  1
  C  C10  1  0.790901  0.608981  0.054369  1
  C  C11  1  0.790901  0.891019  0.554369  1
  C  C12  1  0.209099  0.108981  0.445631  1
  C  C13  1  0.880047  0.243109  0.796410  1
  C  C14  1  0.119953  0.756891  0.203590  1
  C  C15  1  0.119953  0.743109  0.703590  1
  C  C16  1  0.880047  0.256891  0.296410  1
  H  H17  1  0.038905  0.201807  0.901661  1
  H  H18  1  0.961095  0.798193  0.098339  1
  H  H19  1  0.961095  0.701807  0.598339  1
  H  H20  1  0.038905  0.298193  0.401661  1
  H  H21  1  0.950618  0.215272  0.675970  1
  H  H22  1  0.049382  0.784728  0.324030  1
  H  H23  1  0.049382  0.715272  0.824030  1
  H  H24  1  0.950618  0.284728  0.175970  1
  H  H25  1  0.579646  0.228636  0.794767  1
  H  H26  1  0.420354  0.771364  0.205233  1
  H  H27  1  0.420354  0.728636  0.705233  1
  H  H28  1  0.579646  0.271364  0.294767  1
  H  H29  1  0.364977  0.344858  0.044074  1
  H  H30  1  0.635023  0.655142  0.955926  1
  H  H31  1  0.635023  0.844858  0.455926  1
  H  H32  1  0.364977  0.155142  0.544074  1
  H  H33  1  0.258219  0.469973  0.954094  1
  H  H34  1  0.741781  0.530027  0.045906  1
  H  H35  1  0.741781  0.969973  0.545906  1
  H  H36  1  0.258219  0.030027  0.454094  1
  H  H37  1  0.694388  0.551969  0.598306  1
  H  H38  1  0.305612  0.448031  0.401694  1
  H  H39  1  0.305612  0.051969  0.901694  1
  H  H40  1  0.694388  0.948031  0.098306  1
  O  O41  1  0.535601  0.383108  0.560643  1
  O  O42  1  0.464399  0.616892  0.439357  1
  O  O43  1  0.464399  0.883108  0.939357  1
  O  O44  1  0.535601  0.116892  0.060643  1
  O  O45  1  0.850207  0.514758  0.695994  1
  O  O46  1  0.149793  0.485242  0.304006  1
  O  O47  1  0.149793  0.014758  0.804006  1
  O  O48  1  0.850207  0.985242  0.195994  1
 
# Source:                            Grazulis_etal:NucleicAcidsRes.40.D420(2012)                                     
# Class:                             organic_molec_crystal                                                           
# Label:                             COD-7206298                                                                     
# Structure prediction method used:  NA                                                                              
# Number of atoms:                    48
# Number of atom types:                3
# Atom types:                         C  H  O
# Dielectric constant, electronic:   2.85356E+00
# Dielectric constant, ionic:        6.43679E-01
# Dielectric constant, total:        3.49724E+00
# Band gap at the GGA level (eV):    3.00980E+00
# Band gap at the HSE06 level (eV):  4.20450E+00
# Atomization energy (eV/atom):     -5.58932E+00
# Volume of the unit cell (A^3):     3.76011E+02
