# generated using pymatgen
data_H5C2O
_symmetry_space_group_name_H-M   'P 1'
_cell_length_a   4.86446773
_cell_length_b   9.18412425
_cell_length_c   9.50761689
_cell_angle_alpha   90.00000000
_cell_angle_beta   90.00000000
_cell_angle_gamma   90.00000000
_symmetry_Int_Tables_number   1
_chemical_formula_structural   H5C2O
_chemical_formula_sum   'H40 C16 O8'
_cell_volume   424.761113646
_cell_formula_units_Z   8
loop_
 _symmetry_equiv_pos_site_id
 _symmetry_equiv_pos_as_xyz
  1  'x, y, z'
loop_
 _atom_site_type_symbol
 _atom_site_label
 _atom_site_symmetry_multiplicity
 _atom_site_fract_x
 _atom_site_fract_y
 _atom_site_fract_z
 _atom_site_occupancy
  C  C1  1  0.691868  0.705603  0.629044  1
  C  C2  1  0.308132  0.205603  0.870956  1
  C  C3  1  0.808132  0.294397  0.129044  1
  C  C4  1  0.191868  0.794397  0.370956  1
  C  C5  1  0.479403  0.587368  0.658884  1
  C  C6  1  0.520597  0.087368  0.841116  1
  C  C7  1  0.020597  0.412632  0.158884  1
  C  C8  1  0.979403  0.912632  0.341116  1
  C  C9  1  0.551958  0.441214  0.587578  1
  C  C10  1  0.448042  0.941214  0.912422  1
  C  C11  1  0.948042  0.558786  0.087578  1
  C  C12  1  0.051958  0.058786  0.412422  1
  C  C13  1  0.830944  0.382068  0.630720  1
  C  C14  1  0.169056  0.882068  0.869280  1
  C  C15  1  0.669056  0.617932  0.130720  1
  C  C16  1  0.330944  0.117932  0.369280  1
  H  H17  1  0.877165  0.687541  0.691407  1
  H  H18  1  0.122835  0.187541  0.808593  1
  H  H19  1  0.622835  0.312459  0.191407  1
  H  H20  1  0.377165  0.812459  0.308593  1
  H  H21  1  0.278301  0.621639  0.620069  1
  H  H22  1  0.721699  0.121639  0.879931  1
  H  H23  1  0.221699  0.378361  0.120069  1
  H  H24  1  0.778301  0.878361  0.379931  1
  H  H25  1  0.392432  0.361093  0.611391  1
  H  H26  1  0.607568  0.861093  0.888609  1
  H  H27  1  0.107568  0.638907  0.111391  1
  H  H28  1  0.892432  0.138907  0.388609  1
  H  H29  1  0.871314  0.278804  0.578915  1
  H  H30  1  0.128686  0.778804  0.921085  1
  H  H31  1  0.628686  0.721196  0.078915  1
  H  H32  1  0.371314  0.221196  0.421085  1
  H  H33  1  0.840946  0.365341  0.744136  1
  H  H34  1  0.159054  0.865341  0.755864  1
  H  H35  1  0.659054  0.634659  0.244136  1
  H  H36  1  0.340946  0.134659  0.255864  1
  H  H37  1  0.991769  0.458901  0.601415  1
  H  H38  1  0.008231  0.958901  0.898585  1
  H  H39  1  0.508231  0.541099  0.101415  1
  H  H40  1  0.491769  0.041099  0.398585  1
  H  H41  1  0.624857  0.557740  0.854900  1
  H  H42  1  0.375143  0.057740  0.645100  1
  H  H43  1  0.875143  0.442260  0.354900  1
  H  H44  1  0.124857  0.942260  0.145100  1
  H  H45  1  0.372446  0.458597  0.394039  1
  H  H46  1  0.627554  0.958597  0.105961  1
  H  H47  1  0.127554  0.541403  0.894039  1
  H  H48  1  0.872446  0.041403  0.605961  1
  H  H49  1  0.613156  0.813563  0.653977  1
  H  H50  1  0.386844  0.313563  0.846023  1
  H  H51  1  0.886844  0.186437  0.153977  1
  H  H52  1  0.113156  0.686437  0.346023  1
  H  H53  1  0.747804  0.702944  0.518117  1
  H  H54  1  0.252196  0.202944  0.981883  1
  H  H55  1  0.752196  0.297056  0.018117  1
  H  H56  1  0.247804  0.797056  0.481883  1
  O  O57  1  0.441494  0.566940  0.810096  1
  O  O58  1  0.558506  0.066940  0.689904  1
  O  O59  1  0.058506  0.433060  0.310096  1
  O  O60  1  0.941494  0.933060  0.189904  1
  O  O61  1  0.559303  0.465142  0.435327  1
  O  O62  1  0.440697  0.965142  0.064673  1
  O  O63  1  0.940697  0.534858  0.935327  1
  O  O64  1  0.059303  0.034858  0.564673  1
 
# Source:                            Grazulis_etal:NucleicAcidsRes.40.D420(2012)                                     
# Class:                             organic_molec_crystal                                                           
# Label:                             COD-7208660                                                                     
# Structure prediction method used:  NA                                                                              
# Number of atoms:                    64
# Number of atom types:                3
# Atom types:                         C  H  O
# Dielectric constant, electronic:   2.61089E+00
# Dielectric constant, ionic:        5.18624E-01
# Dielectric constant, total:        3.12952E+00
# Band gap at the GGA level (eV):    6.02230E+00
# Band gap at the HSE06 level (eV):  7.82600E+00
# Atomization energy (eV/atom):     -5.08548E+00
# Volume of the unit cell (A^3):     4.24761E+02
