# generated using pymatgen
data_H10C4O
_symmetry_space_group_name_H-M   'P 1'
_cell_length_a   5.04049900
_cell_length_b   5.06028800
_cell_length_c   16.12601000
_cell_angle_alpha   90.00000000
_cell_angle_beta   90.00000000
_cell_angle_gamma   90.00000000
_symmetry_Int_Tables_number   1
_chemical_formula_structural   H10C4O
_chemical_formula_sum   'H40 C16 O4'
_cell_volume   411.316084175
_cell_formula_units_Z   4
loop_
 _symmetry_equiv_pos_site_id
 _symmetry_equiv_pos_as_xyz
  1  'x, y, z'
loop_
 _atom_site_type_symbol
 _atom_site_label
 _atom_site_symmetry_multiplicity
 _atom_site_fract_x
 _atom_site_fract_y
 _atom_site_fract_z
 _atom_site_occupancy
  C  C1  1  0.882783  0.120894  0.923488  1
  C  C2  1  0.617217  0.879106  0.423488  1
  C  C3  1  0.117217  0.620894  0.576512  1
  C  C4  1  0.382783  0.379106  0.076512  1
  C  C5  1  0.087555  0.897359  0.924239  1
  C  C6  1  0.412445  0.102641  0.424239  1
  C  C7  1  0.912445  0.397359  0.575761  1
  C  C8  1  0.587555  0.602641  0.075761  1
  C  C9  1  0.249123  0.870928  0.844185  1
  C  C10  1  0.250877  0.129072  0.344185  1
  C  C11  1  0.750877  0.370928  0.655815  1
  C  C12  1  0.749123  0.629072  0.155815  1
  C  C13  1  0.440366  0.637994  0.846727  1
  C  C14  1  0.059634  0.362006  0.346727  1
  C  C15  1  0.559634  0.137994  0.653273  1
  C  C16  1  0.940366  0.862006  0.153273  1
  H  H17  1  0.227834  0.928351  0.975132  1
  H  H18  1  0.272166  0.071649  0.475132  1
  H  H19  1  0.772166  0.428351  0.524868  1
  H  H20  1  0.727834  0.571649  0.024868  1
  H  H21  1  0.988785  0.708492  0.936063  1
  H  H22  1  0.511215  0.291508  0.436063  1
  H  H23  1  0.011215  0.208492  0.563937  1
  H  H24  1  0.488785  0.791508  0.063937  1
  H  H25  1  0.360141  0.054152  0.833731  1
  H  H26  1  0.139859  0.945848  0.333731  1
  H  H27  1  0.639859  0.554152  0.666269  1
  H  H28  1  0.860141  0.445848  0.166269  1
  H  H29  1  0.572815  0.639595  0.793408  1
  H  H30  1  0.927185  0.360405  0.293408  1
  H  H31  1  0.427185  0.139595  0.706592  1
  H  H32  1  0.072815  0.860405  0.206592  1
  H  H33  1  0.329177  0.452461  0.846726  1
  H  H34  1  0.170823  0.547539  0.346726  1
  H  H35  1  0.670823  0.952461  0.653274  1
  H  H36  1  0.829177  0.047539  0.153274  1
  H  H37  1  0.561598  0.643620  0.902718  1
  H  H38  1  0.938402  0.356380  0.402718  1
  H  H39  1  0.438402  0.143620  0.597282  1
  H  H40  1  0.061598  0.856380  0.097282  1
  H  H41  1  0.009521  0.005724  0.754205  1
  H  H42  1  0.490479  0.994276  0.254205  1
  H  H43  1  0.990479  0.505724  0.745795  1
  H  H44  1  0.509521  0.494276  0.245795  1
  H  H45  1  0.767116  0.121201  0.980812  1
  H  H46  1  0.732884  0.878799  0.480812  1
  H  H47  1  0.232884  0.621201  0.519188  1
  H  H48  1  0.267116  0.378799  0.019188  1
  H  H49  1  0.746645  0.102207  0.871308  1
  H  H50  1  0.753355  0.897793  0.371308  1
  H  H51  1  0.253355  0.602207  0.628692  1
  H  H52  1  0.246645  0.397793  0.128692  1
  H  H53  1  0.979410  0.313200  0.917665  1
  H  H54  1  0.520590  0.686800  0.417665  1
  H  H55  1  0.020590  0.813200  0.582335  1
  H  H56  1  0.479410  0.186800  0.082335  1
  O  O57  1  0.076209  0.831034  0.772333  1
  O  O58  1  0.423791  0.168966  0.272333  1
  O  O59  1  0.923791  0.331034  0.727667  1
  O  O60  1  0.576209  0.668966  0.227667  1
 
# Source:                            Grazulis_etal:NucleicAcidsRes.40.D420(2012)                                     
# Class:                             organic_molec_crystal                                                           
# Label:                             COD-7208662                                                                     
# Structure prediction method used:  NA                                                                              
# Number of atoms:                    60
# Number of atom types:                3
# Atom types:                         C  H  O
# Dielectric constant, electronic:   2.54304E+00
# Dielectric constant, ionic:        5.25640E-01
# Dielectric constant, total:        3.06868E+00
# Band gap at the GGA level (eV):    6.20760E+00
# Band gap at the HSE06 level (eV):  8.06530E+00
# Atomization energy (eV/atom):     -5.01794E+00
# Volume of the unit cell (A^3):     4.11316E+02
