# generated using pymatgen
data_H6C7O3
_symmetry_space_group_name_H-M   'P 1'
_cell_length_a   3.40816109
_cell_length_b   7.70385300
_cell_length_c   9.97221699
_cell_angle_alpha   90.00000000
_cell_angle_beta   98.90541258
_cell_angle_gamma   90.00000000
_symmetry_Int_Tables_number   1
_chemical_formula_structural   H6C7O3
_chemical_formula_sum   'H12 C14 O6'
_cell_volume   258.673951441
_cell_formula_units_Z   2
loop_
 _symmetry_equiv_pos_site_id
 _symmetry_equiv_pos_as_xyz
  1  'x, y, z'
loop_
 _atom_site_type_symbol
 _atom_site_label
 _atom_site_symmetry_multiplicity
 _atom_site_fract_x
 _atom_site_fract_y
 _atom_site_fract_z
 _atom_site_occupancy
  C  C1  1  0.626126  0.616136  0.739027  1
  C  C2  1  0.373874  0.116136  0.260973  1
  C  C3  1  0.661240  0.497627  0.848420  1
  C  C4  1  0.338760  0.997627  0.151580  1
  C  C5  1  0.798633  0.331275  0.831216  1
  C  C6  1  0.201367  0.831275  0.168784  1
  C  C7  1  0.893104  0.279307  0.703600  1
  C  C8  1  0.106896  0.779307  0.296400  1
  C  C9  1  0.845445  0.394892  0.594470  1
  C  C10  1  0.154555  0.894892  0.405530  1
  C  C11  1  0.717128  0.562547  0.612150  1
  C  C12  1  0.282872  0.062547  0.387850  1
  C  C13  1  0.502245  0.792619  0.750927  1
  C  C14  1  0.497755  0.292619  0.249073  1
  H  H15  1  0.594445  0.536927  0.946390  1
  H  H16  1  0.405555  0.036927  0.053610  1
  H  H17  1  0.774068  0.255872  0.015877  1
  H  H18  1  0.225932  0.755872  0.984123  1
  H  H19  1  0.111163  0.055155  0.773970  1
  H  H20  1  0.888836  0.555155  0.226030  1
  H  H21  1  0.927222  0.354607  0.498978  1
  H  H22  1  0.072778  0.854607  0.501022  1
  H  H23  1  0.682074  0.651291  0.527191  1
  H  H24  1  0.317926  0.151291  0.472809  1
  H  H25  1  0.531863  0.877250  0.664567  1
  H  H26  1  0.468137  0.377250  0.335433  1
  O  O27  1  0.036696  0.117235  0.686144  1
  O  O28  1  0.963304  0.617235  0.313856  1
  O  O29  1  0.363370  0.858833  0.849196  1
  O  O30  1  0.636630  0.358833  0.150804  1
  O  O31  1  0.855868  0.208027  0.931260  1
  O  O32  1  0.144132  0.708027  0.068740  1
 
# Source:                            Grazulis_etal:NucleicAcidsRes.40.D420(2012)                                     
# Class:                             organic_molec_crystal                                                           
# Label:                             COD-7213183                                                                     
# Structure prediction method used:  NA                                                                              
# Number of atoms:                    32
# Number of atom types:                3
# Atom types:                         C  H  O
# Dielectric constant, electronic:   3.66965E+00
# Dielectric constant, ionic:        1.27003E+00
# Dielectric constant, total:        4.93968E+00
# Band gap at the GGA level (eV):    1.65470E+00
# Band gap at the HSE06 level (eV):  2.62780E+00
# Atomization energy (eV/atom):     -6.11170E+00
# Volume of the unit cell (A^3):     2.58674E+02
