# generated using pymatgen
data_H7C5O
_symmetry_space_group_name_H-M   'P 1'
_cell_length_a   6.22946265
_cell_length_b   8.34056800
_cell_length_c   8.92726202
_cell_angle_alpha   90.00000000
_cell_angle_beta   119.70000963
_cell_angle_gamma   90.00000000
_symmetry_Int_Tables_number   1
_chemical_formula_structural   H7C5O
_chemical_formula_sum   'H28 C20 O4'
_cell_volume   402.902568043
_cell_formula_units_Z   4
loop_
 _symmetry_equiv_pos_site_id
 _symmetry_equiv_pos_as_xyz
  1  'x, y, z'
loop_
 _atom_site_type_symbol
 _atom_site_label
 _atom_site_symmetry_multiplicity
 _atom_site_fract_x
 _atom_site_fract_y
 _atom_site_fract_z
 _atom_site_occupancy
  C  C1  1  0.811159  0.082309  0.862843  1
  C  C2  1  0.188841  0.917691  0.137157  1
  C  C3  1  0.188841  0.582309  0.637157  1
  C  C4  1  0.811159  0.417691  0.362843  1
  C  C5  1  0.442753  0.247341  0.739300  1
  C  C6  1  0.557247  0.752659  0.260700  1
  C  C7  1  0.557247  0.747341  0.760700  1
  C  C8  1  0.442753  0.252659  0.239300  1
  C  C9  1  0.977815  0.991883  0.834542  1
  C  C10  1  0.022185  0.008117  0.165458  1
  C  C11  1  0.022185  0.491883  0.665458  1
  C  C12  1  0.977815  0.508117  0.334542  1
  C  C13  1  0.940947  0.977756  0.655284  1
  C  C14  1  0.059053  0.022244  0.344716  1
  C  C15  1  0.059053  0.477756  0.844716  1
  C  C16  1  0.940947  0.522244  0.155284  1
  C  C17  1  0.167944  0.909667  0.973935  1
  C  C18  1  0.832056  0.090333  0.026065  1
  C  C19  1  0.832056  0.409667  0.526065  1
  C  C20  1  0.167944  0.590333  0.473935  1
  H  H21  1  0.306932  0.285392  0.610321  1
  H  H22  1  0.693068  0.714608  0.389679  1
  H  H23  1  0.693068  0.785392  0.889679  1
  H  H24  1  0.306932  0.214608  0.110321  1
  H  H25  1  0.531933  0.351398  0.821638  1
  H  H26  1  0.468067  0.648602  0.178362  1
  H  H27  1  0.468067  0.851398  0.678362  1
  H  H28  1  0.531933  0.148602  0.321638  1
  H  H29  1  0.354595  0.174426  0.795726  1
  H  H30  1  0.645405  0.825574  0.204274  1
  H  H31  1  0.645405  0.674426  0.704274  1
  H  H32  1  0.354595  0.325574  0.295726  1
  H  H33  1  0.077244  0.896759  0.654001  1
  H  H34  1  0.922756  0.103241  0.345999  1
  H  H35  1  0.922756  0.396759  0.845999  1
  H  H36  1  0.077244  0.603241  0.154001  1
  H  H37  1  0.956594  0.094583  0.606169  1
  H  H38  1  0.043406  0.905417  0.393831  1
  H  H39  1  0.043406  0.594583  0.893831  1
  H  H40  1  0.956594  0.405417  0.106169  1
  H  H41  1  0.755434  0.933094  0.564890  1
  H  H42  1  0.244566  0.066906  0.435110  1
  H  H43  1  0.244566  0.433094  0.935110  1
  H  H44  1  0.755434  0.566906  0.064890  1
  H  H45  1  0.294083  0.838369  0.951077  1
  H  H46  1  0.705917  0.161631  0.048923  1
  H  H47  1  0.705917  0.338369  0.548923  1
  H  H48  1  0.294083  0.661631  0.451077  1
  O  O49  1  0.620322  0.153695  0.716258  1
  O  O50  1  0.379678  0.846305  0.283742  1
  O  O51  1  0.379678  0.653695  0.783742  1
  O  O52  1  0.620322  0.346305  0.216258  1
 
# Source:                            Grazulis_etal:NucleicAcidsRes.40.D420(2012)                                     
# Class:                             organic_molec_crystal                                                           
# Label:                             COD-7216974                                                                     
# Structure prediction method used:  NA                                                                              
# Number of atoms:                    52
# Number of atom types:                3
# Atom types:                         C  H  O
# Dielectric constant, electronic:   2.91201E+00
# Dielectric constant, ionic:        3.08911E-01
# Dielectric constant, total:        3.22092E+00
# Band gap at the GGA level (eV):    3.24260E+00
# Band gap at the HSE06 level (eV):  4.34890E+00
# Atomization energy (eV/atom):     -5.55048E+00
# Volume of the unit cell (A^3):     4.02903E+02
