# generated using pymatgen
data_H14C10O3
_symmetry_space_group_name_H-M   'P 1'
_cell_length_a   7.92868005
_cell_length_b   6.23146553
_cell_length_c   8.15127057
_cell_angle_alpha   90.00000000
_cell_angle_beta   104.42741933
_cell_angle_gamma   90.00000000
_symmetry_Int_Tables_number   1
_chemical_formula_structural   H14C10O3
_chemical_formula_sum   'H28 C20 O6'
_cell_volume   390.031693018
_cell_formula_units_Z   2
loop_
 _symmetry_equiv_pos_site_id
 _symmetry_equiv_pos_as_xyz
  1  'x, y, z'
loop_
 _atom_site_type_symbol
 _atom_site_label
 _atom_site_symmetry_multiplicity
 _atom_site_fract_x
 _atom_site_fract_y
 _atom_site_fract_z
 _atom_site_occupancy
  C  C1  1  0.912500  0.308718  0.856927  1
  C  C2  1  0.087500  0.808718  0.143073  1
  C  C3  1  0.589187  0.281237  0.770105  1
  C  C4  1  0.410813  0.781237  0.229895  1
  C  C5  1  0.589182  0.373958  0.942750  1
  C  C6  1  0.410818  0.873958  0.057250  1
  C  C7  1  0.735773  0.280472  0.083004  1
  C  C8  1  0.264227  0.780472  0.916996  1
  C  C9  1  0.749110  0.381452  0.257979  1
  C  C10  1  0.250890  0.881452  0.742021  1
  C  C11  1  0.901159  0.278268  0.387831  1
  C  C12  1  0.098841  0.778268  0.612169  1
  C  C13  1  0.075759  0.308431  0.340994  1
  C  C14  1  0.924241  0.808431  0.659006  1
  C  C15  1  0.062060  0.306071  0.155256  1
  C  C16  1  0.937940  0.806071  0.844744  1
  C  C17  1  0.908007  0.298610  0.032882  1
  C  C18  1  0.091993  0.798610  0.967118  1
  C  C19  1  0.458804  0.390135  0.626669  1
  C  C20  1  0.541196  0.890135  0.373331  1
  H  H21  1  0.191927  0.321952  0.989801  1
  H  H22  1  0.808073  0.821952  0.010199  1
  H  H23  1  0.464588  0.326686  0.503333  1
  H  H24  1  0.535412  0.826686  0.496667  1
  H  H25  1  0.484035  0.562637  0.628946  1
  H  H26  1  0.515965  0.062637  0.371054  1
  H  H27  1  0.327854  0.364163  0.643202  1
  H  H28  1  0.672146  0.864163  0.356798  1
  H  H29  1  0.570117  0.107532  0.768170  1
  H  H30  1  0.429883  0.607532  0.231830  1
  H  H31  1  0.601735  0.548002  0.937143  1
  H  H32  1  0.398265  0.048002  0.062857  1
  H  H33  1  0.463301  0.338570  0.968540  1
  H  H34  1  0.536699  0.838570  0.031460  1
  H  H35  1  0.707714  0.109756  0.094532  1
  H  H36  1  0.292286  0.609756  0.905468  1
  H  H37  1  0.768959  0.554856  0.252221  1
  H  H38  1  0.231041  0.054856  0.747779  1
  H  H39  1  0.627088  0.355004  0.295333  1
  H  H40  1  0.372912  0.855004  0.704667  1
  H  H41  1  0.875729  0.106397  0.391528  1
  H  H42  1  0.124271  0.606397  0.608472  1
  H  H43  1  0.911537  0.341105  0.514240  1
  H  H44  1  0.088463  0.841105  0.485760  1
  H  H45  1  0.168766  0.183690  0.399847  1
  H  H46  1  0.831234  0.683690  0.600153  1
  H  H47  1  0.135797  0.462338  0.387505  1
  H  H48  1  0.864203  0.962338  0.612495  1
  O  O49  1  0.219623  0.320383  0.117913  1
  O  O50  1  0.780377  0.820383  0.882087  1
  O  O51  1  0.051330  0.320116  0.807805  1
  O  O52  1  0.948670  0.820116  0.192195  1
  O  O53  1  0.762633  0.311860  0.731490  1
  O  O54  1  0.237367  0.811860  0.268510  1
 
# Source:                            Grazulis_etal:NucleicAcidsRes.40.D420(2012)                                     
# Class:                             organic_molec_crystal                                                           
# Label:                             COD-1508923                                                                     
# Structure prediction method used:  NA                                                                              
# Number of atoms:                    54
# Number of atom types:                3
# Atom types:                         C  H  O
# Dielectric constant, electronic:   2.84022E+00
# Dielectric constant, ionic:        3.73458E-01
# Dielectric constant, total:        3.21367E+00
# Band gap at the GGA level (eV):    3.16960E+00
# Band gap at the HSE06 level (eV):  4.35070E+00
# Atomization energy (eV/atom):     -5.60097E+00
# Volume of the unit cell (A^3):     3.90032E+02
