# generated using pymatgen
data_H5C5O2
_symmetry_space_group_name_H-M   'P 1'
_cell_length_a   6.79603480
_cell_length_b   7.62765980
_cell_length_c   8.04025578
_cell_angle_alpha   104.54563242
_cell_angle_beta   91.88963937
_cell_angle_gamma   91.39633547
_symmetry_Int_Tables_number   1
_chemical_formula_structural   H5C5O2
_chemical_formula_sum   'H20 C20 O8'
_cell_volume   402.981449388
_cell_formula_units_Z   4
loop_
 _symmetry_equiv_pos_site_id
 _symmetry_equiv_pos_as_xyz
  1  'x, y, z'
loop_
 _atom_site_type_symbol
 _atom_site_label
 _atom_site_symmetry_multiplicity
 _atom_site_fract_x
 _atom_site_fract_y
 _atom_site_fract_z
 _atom_site_occupancy
  C  C1  1  0.701470  0.326212  0.425444  1
  C  C2  1  0.298530  0.673788  0.574556  1
  C  C3  1  0.927586  0.303363  0.099672  1
  C  C4  1  0.072414  0.696637  0.900328  1
  C  C5  1  0.860738  0.190423  0.371107  1
  C  C6  1  0.139262  0.809577  0.628893  1
  C  C7  1  0.887472  0.142704  0.175333  1
  C  C8  1  0.112528  0.857296  0.824667  1
  C  C9  1  0.052724  0.250348  0.486824  1
  C  C10  1  0.947276  0.749652  0.513176  1
  C  C11  1  0.215510  0.135779  0.421802  1
  C  C12  1  0.784490  0.864221  0.578198  1
  C  C13  1  0.339044  0.029961  0.361817  1
  C  C14  1  0.660956  0.970039  0.638183  1
  C  C15  1  0.708875  0.029778  0.078638  1
  C  C16  1  0.291125  0.970222  0.921362  1
  C  C17  1  0.686182  0.847627  0.103963  1
  C  C18  1  0.313818  0.152373  0.896037  1
  C  C19  1  0.653128  0.695838  0.117423  1
  C  C20  1  0.346872  0.304162  0.882577  1
  H  H21  1  0.555701  0.448038  0.621510  1
  H  H22  1  0.444299  0.551962  0.378490  1
  H  H23  1  0.806860  0.066007  0.400942  1
  H  H24  1  0.193140  0.933993  0.599058  1
  H  H25  1  0.087036  0.526146  0.138223  1
  H  H26  1  0.912964  0.473854  0.861777  1
  H  H27  1  0.018939  0.061478  0.153395  1
  H  H28  1  0.981061  0.938522  0.846605  1
  H  H29  1  0.092403  0.390821  0.493283  1
  H  H30  1  0.907597  0.609179  0.506717  1
  H  H31  1  0.022609  0.242255  0.617722  1
  H  H32  1  0.977391  0.757745  0.382278  1
  H  H33  1  0.442363  0.928702  0.313741  1
  H  H34  1  0.557637  0.071298  0.686259  1
  H  H35  1  0.577445  0.106254  0.118991  1
  H  H36  1  0.422555  0.893746  0.881009  1
  H  H37  1  0.718396  0.020668  0.941670  1
  H  H38  1  0.281604  0.979332  0.058330  1
  H  H39  1  0.628800  0.560886  0.127964  1
  H  H40  1  0.371200  0.439114  0.872036  1
  O  O41  1  0.618379  0.403586  0.324496  1
  O  O42  1  0.381621  0.596414  0.675504  1
  O  O43  1  0.660222  0.354439  0.590485  1
  O  O44  1  0.339778  0.645561  0.409515  1
  O  O45  1  0.857188  0.311872  0.957551  1
  O  O46  1  0.142812  0.688128  0.042449  1
  O  O47  1  0.052259  0.427736  0.197608  1
  O  O48  1  0.947741  0.572264  0.802392  1
 
# Source:                            Grazulis_etal:NucleicAcidsRes.40.D420(2012)                                     
# Class:                             organic_molec_crystal                                                           
# Label:                             COD-1514880                                                                     
# Structure prediction method used:  NA                                                                              
# Number of atoms:                    48
# Number of atom types:                3
# Atom types:                         C  H  O
# Dielectric constant, electronic:   2.81700E+00
# Dielectric constant, ionic:        6.47894E-01
# Dielectric constant, total:        3.46490E+00
# Band gap at the GGA level (eV):    4.12500E+00
# Band gap at the HSE06 level (eV):  5.61370E+00
# Atomization energy (eV/atom):     -5.85022E+00
# Volume of the unit cell (A^3):     4.02981E+02
