# generated using pymatgen
data_H16(CO)7
_symmetry_space_group_name_H-M   'P 1'
_cell_length_a   4.45810115
_cell_length_b   8.03668200
_cell_length_c   11.05053441
_cell_angle_alpha   90.00000000
_cell_angle_beta   90.92005002
_cell_angle_gamma   90.00000000
_symmetry_Int_Tables_number   1
_chemical_formula_structural   H16(CO)7
_chemical_formula_sum   'H32 C14 O14'
_cell_volume   395.871273913
_cell_formula_units_Z   2
loop_
 _symmetry_equiv_pos_site_id
 _symmetry_equiv_pos_as_xyz
  1  'x, y, z'
loop_
 _atom_site_type_symbol
 _atom_site_label
 _atom_site_symmetry_multiplicity
 _atom_site_fract_x
 _atom_site_fract_y
 _atom_site_fract_z
 _atom_site_occupancy
  C  C1  1  0.917547  0.724088  0.402911  1
  C  C2  1  0.082453  0.224088  0.597089  1
  C  C3  1  0.704790  0.593445  0.350712  1
  C  C4  1  0.295210  0.093445  0.649288  1
  C  C5  1  0.880906  0.442072  0.305199  1
  C  C6  1  0.119094  0.942072  0.694801  1
  C  C7  1  0.680183  0.295055  0.268800  1
  C  C8  1  0.319817  0.795055  0.731200  1
  C  C9  1  0.861383  0.154228  0.210012  1
  C  C10  1  0.138617  0.654228  0.789988  1
  C  C11  1  0.661708  0.020886  0.149829  1
  C  C12  1  0.338292  0.520886  0.850171  1
  C  C13  1  0.507325  0.088551  0.036266  1
  C  C14  1  0.492675  0.588551  0.963734  1
  H  H15  1  0.078043  0.764455  0.335648  1
  H  H16  1  0.921957  0.264455  0.664352  1
  H  H17  1  0.041858  0.673302  0.480459  1
  H  H18  1  0.958142  0.173302  0.519541  1
  H  H19  1  0.547395  0.555283  0.420675  1
  H  H20  1  0.452605  0.055283  0.579325  1
  H  H21  1  0.036411  0.402274  0.376421  1
  H  H22  1  0.963589  0.902274  0.623579  1
  H  H23  1  0.504543  0.337646  0.206385  1
  H  H24  1  0.495457  0.837646  0.793615  1
  H  H25  1  0.007198  0.207947  0.142044  1
  H  H26  1  0.992802  0.707947  0.857956  1
  H  H27  1  0.495207  0.976239  0.213599  1
  H  H28  1  0.504793  0.476239  0.786401  1
  H  H29  1  0.674078  0.115749  0.967871  1
  H  H30  1  0.325922  0.615749  0.032129  1
  H  H31  1  0.386601  0.204014  0.053247  1
  H  H32  1  0.613399  0.704014  0.946753  1
  H  H33  1  0.609200  0.843285  0.499521  1
  H  H34  1  0.390800  0.343285  0.500479  1
  H  H35  1  0.361110  0.603906  0.229133  1
  H  H36  1  0.638890  0.103906  0.770867  1
  H  H37  1  0.924151  0.501346  0.130404  1
  H  H38  1  0.075849  0.001346  0.869596  1
  H  H39  1  0.361978  0.170654  0.354732  1
  H  H40  1  0.638022  0.670654  0.645268  1
  H  H41  1  0.929255  0.023549  0.360568  1
  H  H42  1  0.070745  0.523549  0.639432  1
  H  H43  1  0.760499  0.781428  0.158174  1
  H  H44  1  0.239501  0.281428  0.841826  1
  H  H45  1  0.161344  0.926050  0.045797  1
  H  H46  1  0.838656  0.426050  0.954203  1
  O  O47  1  0.756040  0.873507  0.437089  1
  O  O48  1  0.243960  0.373507  0.562911  1
  O  O49  1  0.540738  0.670935  0.251792  1
  O  O50  1  0.459262  0.170935  0.748208  1
  O  O51  1  0.061377  0.490488  0.202776  1
  O  O52  1  0.938623  0.990488  0.797224  1
  O  O53  1  0.545182  0.234551  0.379457  1
  O  O54  1  0.454818  0.734551  0.620543  1
  O  O55  1  0.058320  0.079415  0.300412  1
  O  O56  1  0.941680  0.579415  0.699588  1
  O  O57  1  0.845175  0.878784  0.115738  1
  O  O58  1  0.154825  0.378784  0.884262  1
  O  O59  1  0.306425  0.964969  0.984216  1
  O  O60  1  0.693575  0.464969  0.015784  1
 
# Source:                            Grazulis_etal:NucleicAcidsRes.40.D420(2012)                                     
# Class:                             organic_molec_crystal                                                           
# Label:                             COD-2000286                                                                     
# Structure prediction method used:  NA                                                                              
# Number of atoms:                    60
# Number of atom types:                3
# Atom types:                         C  H  O
# Dielectric constant, electronic:   2.72098E+00
# Dielectric constant, ionic:        1.07147E+00
# Dielectric constant, total:        3.79245E+00
# Band gap at the GGA level (eV):    5.85570E+00
# Band gap at the HSE06 level (eV):  7.67700E+00
# Atomization energy (eV/atom):     -5.26427E+00
# Volume of the unit cell (A^3):     3.95871E+02
