# generated using pymatgen
data_H14C11O4
_symmetry_space_group_name_H-M   'P 1'
_cell_length_a   7.15310247
_cell_length_b   7.74422836
_cell_length_c   8.19336791
_cell_angle_alpha   81.63468862
_cell_angle_beta   89.99998098
_cell_angle_gamma   90.00000597
_symmetry_Int_Tables_number   1
_chemical_formula_structural   H14C11O4
_chemical_formula_sum   'H28 C22 O8'
_cell_volume   449.044790781
_cell_formula_units_Z   2
loop_
 _symmetry_equiv_pos_site_id
 _symmetry_equiv_pos_as_xyz
  1  'x, y, z'
loop_
 _atom_site_type_symbol
 _atom_site_label
 _atom_site_symmetry_multiplicity
 _atom_site_fract_x
 _atom_site_fract_y
 _atom_site_fract_z
 _atom_site_occupancy
  C  C1  1  0.223894  0.273812  0.869845  1
  C  C2  1  0.723894  0.726188  0.130155  1
  C  C3  1  0.259325  0.337224  0.018672  1
  C  C4  1  0.759324  0.662776  0.981328  1
  C  C5  1  0.214917  0.243200  0.172323  1
  C  C6  1  0.714917  0.756800  0.827677  1
  C  C7  1  0.125199  0.081861  0.171187  1
  C  C8  1  0.625199  0.918139  0.828813  1
  C  C9  1  0.088228  0.017333  0.023552  1
  C  C10  1  0.588228  0.982667  0.976447  1
  C  C11  1  0.139822  0.109688  0.870943  1
  C  C12  1  0.639822  0.890312  0.129057  1
  C  C13  1  0.302396  0.383624  0.721575  1
  C  C14  1  0.802397  0.616377  0.278426  1
  C  C15  1  0.297208  0.671675  0.561433  1
  C  C16  1  0.797209  0.328326  0.438567  1
  C  C17  1  0.097900  0.035938  0.714235  1
  C  C18  1  0.597899  0.964062  0.285765  1
  C  C19  1  0.276673  0.304610  0.329626  1
  C  C20  1  0.776673  0.695390  0.670374  1
  C  C21  1  0.256096  0.644577  0.035706  1
  C  C22  1  0.756096  0.355422  0.964294  1
  H  H23  1  0.029593  0.871169  0.310151  1
  H  H24  1  0.529593  0.128831  0.689849  1
  H  H25  1  0.016476  0.894186  0.027739  1
  H  H26  1  0.516476  0.105814  0.972261  1
  H  H27  1  0.186406  0.762914  0.521956  1
  H  H28  1  0.686407  0.237086  0.478045  1
  H  H29  1  0.357341  0.617444  0.457839  1
  H  H30  1  0.857341  0.382557  0.542161  1
  H  H31  1  0.403350  0.732874  0.628811  1
  H  H32  1  0.903350  0.267125  0.371189  1
  H  H33  1  0.979136  0.102513  0.647979  1
  H  H34  1  0.479136  0.897486  0.352022  1
  H  H35  1  0.062010  0.898075  0.742237  1
  H  H36  1  0.562009  0.101925  0.257763  1
  H  H37  1  0.216770  0.048064  0.630064  1
  H  H38  1  0.716770  0.951936  0.369936  1
  H  H39  1  0.400068  0.386993  0.307302  1
  H  H40  1  0.900067  0.613008  0.692698  1
  H  H41  1  0.169065  0.380577  0.381959  1
  H  H42  1  0.669065  0.619423  0.618041  1
  H  H43  1  0.310552  0.193011  0.421689  1
  H  H44  1  0.810551  0.806989  0.578311  1
  H  H45  1  0.186239  0.622988  0.155380  1
  H  H46  1  0.686239  0.377011  0.844620  1
  H  H47  1  0.153028  0.672384  0.937541  1
  H  H48  1  0.653028  0.327615  0.062460  1
  H  H49  1  0.356202  0.749945  0.031025  1
  H  H50  1  0.856202  0.250055  0.968975  1
  O  O51  1  0.446742  0.347022  0.650299  1
  O  O52  1  0.946742  0.652978  0.349700  1
  O  O53  1  0.206761  0.532867  0.678059  1
  O  O54  1  0.706761  0.467133  0.321940  1
  O  O55  1  0.363401  0.490927  0.008573  1
  O  O56  1  0.863401  0.509073  0.991427  1
  O  O57  1  0.078804  0.988453  0.322383  1
  O  O58  1  0.578804  0.011547  0.677617  1
 
# Source:                            Grazulis_etal:NucleicAcidsRes.40.D420(2012)                                     
# Class:                             organic_molec_crystal                                                           
# Label:                             COD-2000850                                                                     
# Structure prediction method used:  NA                                                                              
# Number of atoms:                    58
# Number of atom types:                3
# Atom types:                         C  H  O
# Dielectric constant, electronic:   2.93402E+00
# Dielectric constant, ionic:        5.36279E-01
# Dielectric constant, total:        3.47030E+00
# Band gap at the GGA level (eV):    3.40870E+00
# Band gap at the HSE06 level (eV):  4.69590E+00
# Atomization energy (eV/atom):     -5.69571E+00
# Volume of the unit cell (A^3):     4.49045E+02
