# generated using pymatgen
data_H10C15O4
_symmetry_space_group_name_H-M   'P 1'
_cell_length_a   6.04096215
_cell_length_b   7.13652857
_cell_length_c   11.68595388
_cell_angle_alpha   90.00000000
_cell_angle_beta   101.90485739
_cell_angle_gamma   90.00000000
_symmetry_Int_Tables_number   1
_chemical_formula_structural   H10C15O4
_chemical_formula_sum   'H20 C30 O8'
_cell_volume   492.963028064
_cell_formula_units_Z   2
loop_
 _symmetry_equiv_pos_site_id
 _symmetry_equiv_pos_as_xyz
  1  'x, y, z'
loop_
 _atom_site_type_symbol
 _atom_site_label
 _atom_site_symmetry_multiplicity
 _atom_site_fract_x
 _atom_site_fract_y
 _atom_site_fract_z
 _atom_site_occupancy
  C  C1  1  0.753864  0.903549  0.344305  1
  C  C2  1  0.246136  0.403549  0.655695  1
  C  C3  1  0.704319  0.921733  0.222808  1
  C  C4  1  0.295681  0.421733  0.777192  1
  C  C5  1  0.856995  0.853201  0.158543  1
  C  C6  1  0.143005  0.353201  0.841457  1
  C  C7  1  0.054967  0.764516  0.213114  1
  C  C8  1  0.945033  0.264516  0.786886  1
  C  C9  1  0.104679  0.745691  0.334893  1
  C  C10  1  0.895321  0.245691  0.665107  1
  C  C11  1  0.957223  0.818669  0.403398  1
  C  C12  1  0.042777  0.318669  0.596602  1
  C  C13  1  0.016262  0.817091  0.531756  1
  C  C14  1  0.983738  0.317091  0.468244  1
  C  C15  1  0.206719  0.887236  0.600062  1
  C  C16  1  0.793281  0.387236  0.399938  1
  C  C17  1  0.234233  0.891029  0.725202  1
  C  C18  1  0.765767  0.391029  0.274798  1
  C  C19  1  0.424492  0.971036  0.799240  1
  C  C20  1  0.575508  0.471036  0.200760  1
  C  C21  1  0.434312  0.983251  0.918564  1
  C  C22  1  0.565688  0.483251  0.081436  1
  C  C23  1  0.258791  0.911495  0.968575  1
  C  C24  1  0.741209  0.411495  0.031425  1
  C  C25  1  0.073770  0.825994  0.897827  1
  C  C26  1  0.926230  0.325994  0.102173  1
  C  C27  1  0.059121  0.818177  0.776284  1
  C  C28  1  0.940879  0.318177  0.223716  1
  C  C29  1  0.862219  0.735246  0.702478  1
  C  C30  1  0.137781  0.235246  0.297522  1
  H  H31  1  0.483125  0.044083  0.357811  1
  H  H32  1  0.516875  0.544083  0.642189  1
  H  H33  1  0.310386  0.610229  0.463633  1
  H  H34  1  0.689614  0.110229  0.536367  1
  H  H35  1  0.551985  0.993710  0.180813  1
  H  H36  1  0.448015  0.493710  0.819187  1
  H  H37  1  0.817835  0.867231  0.064471  1
  H  H38  1  0.182165  0.367231  0.935529  1
  H  H39  1  0.169671  0.704340  0.163345  1
  H  H40  1  0.830329  0.204340  0.836655  1
  H  H41  1  0.335220  0.948054  0.559163  1
  H  H42  1  0.664780  0.448054  0.440837  1
  H  H43  1  0.556579  0.028134  0.760058  1
  H  H44  1  0.443421  0.528134  0.239942  1
  H  H45  1  0.575761  0.054380  0.973676  1
  H  H46  1  0.424239  0.554380  0.026324  1
  H  H47  1  0.266786  0.925921  0.061458  1
  H  H48  1  0.733214  0.425921  0.938542  1
  H  H49  1  0.937872  0.765335  0.933150  1
  H  H50  1  0.062128  0.265335  0.066850  1
  O  O51  1  0.609360  0.975552  0.410583  1
  O  O52  1  0.390640  0.475552  0.589417  1
  O  O53  1  0.298055  0.648204  0.381008  1
  O  O54  1  0.701945  0.148204  0.618992  1
  O  O55  1  0.704495  0.659380  0.738388  1
  O  O56  1  0.295505  0.159380  0.261612  1
  O  O57  1  0.845783  0.737732  0.582717  1
  O  O58  1  0.154217  0.237732  0.417283  1
 
# Source:                            Grazulis_etal:NucleicAcidsRes.40.D420(2012)                                     
# Class:                             organic_molec_crystal                                                           
# Label:                             COD-2000989                                                                     
# Structure prediction method used:  NA                                                                              
# Number of atoms:                    58
# Number of atom types:                3
# Atom types:                         C  H  O
# Dielectric constant, electronic:   3.60153E+00
# Dielectric constant, ionic:        7.21866E-01
# Dielectric constant, total:        4.32339E+00
# Band gap at the GGA level (eV):    2.21840E+00
# Band gap at the HSE06 level (eV):  3.18010E+00
# Atomization energy (eV/atom):     -6.34790E+00
# Volume of the unit cell (A^3):     4.92963E+02
