# generated using pymatgen
data_H20(C4O)3
_symmetry_space_group_name_H-M   'P 1'
_cell_length_a   6.32577251
_cell_length_b   7.82003252
_cell_length_c   10.44905115
_cell_angle_alpha   89.99999274
_cell_angle_beta   89.99999348
_cell_angle_gamma   73.13684175
_symmetry_Int_Tables_number   1
_chemical_formula_structural   H20(C4O)3
_chemical_formula_sum   'H40 C24 O6'
_cell_volume   494.664862735
_cell_formula_units_Z   2
loop_
 _symmetry_equiv_pos_site_id
 _symmetry_equiv_pos_as_xyz
  1  'x, y, z'
loop_
 _atom_site_type_symbol
 _atom_site_label
 _atom_site_symmetry_multiplicity
 _atom_site_fract_x
 _atom_site_fract_y
 _atom_site_fract_z
 _atom_site_occupancy
  C  C1  1  0.346605  0.980350  0.066669  1
  C  C2  1  0.653396  0.019650  0.566669  1
  C  C3  1  0.226588  0.175828  0.094723  1
  C  C4  1  0.773412  0.824172  0.594723  1
  C  C5  1  0.994121  0.182820  0.143296  1
  C  C6  1  0.005879  0.817179  0.643296  1
  C  C7  1  0.008913  0.084233  0.272339  1
  C  C8  1  0.991087  0.915767  0.772339  1
  C  C9  1  0.189053  0.903307  0.277963  1
  C  C10  1  0.810947  0.096694  0.777963  1
  C  C11  1  0.397538  0.871241  0.190989  1
  C  C12  1  0.602462  0.128759  0.690989  1
  C  C13  1  0.395446  0.674778  0.166733  1
  C  C14  1  0.604554  0.325222  0.666733  1
  C  C15  1  0.153144  0.729445  0.221299  1
  C  C16  1  0.846856  0.270555  0.721299  1
  C  C17  1  0.139887  0.586808  0.318473  1
  C  C18  1  0.860113  0.413193  0.818473  1
  C  C19  1  0.378305  0.517796  0.370945  1
  C  C20  1  0.621695  0.482204  0.870945  1
  C  C21  1  0.529123  0.525338  0.255275  1
  C  C22  1  0.470877  0.474662  0.755275  1
  C  C23  1  0.969075  0.637925  0.040631  1
  C  C24  1  0.030925  0.362075  0.540630  1
  H  H25  1  0.504316  0.000574  0.909335  1
  H  H26  1  0.495685  0.999426  0.409335  1
  H  H27  1  0.714797  0.871630  0.200933  1
  H  H28  1  0.285203  0.128370  0.700933  1
  H  H29  1  0.234924  0.926607  0.009339  1
  H  H30  1  0.765077  0.073393  0.509339  1
  H  H31  1  0.319065  0.227877  0.166602  1
  H  H32  1  0.680935  0.772123  0.666602  1
  H  H33  1  0.220557  0.254229  0.007359  1
  H  H34  1  0.779443  0.745771  0.507359  1
  H  H35  1  0.910959  0.121985  0.071967  1
  H  H36  1  0.089041  0.878015  0.571967  1
  H  H37  1  0.892465  0.320079  0.155872  1
  H  H38  1  0.107535  0.679921  0.655873  1
  H  H39  1  0.048053  0.168674  0.346374  1
  H  H40  1  0.951947  0.831326  0.846374  1
  H  H41  1  0.847810  0.067931  0.297678  1
  H  H42  1  0.152190  0.932070  0.797678  1
  H  H43  1  0.242823  0.876123  0.377254  1
  H  H44  1  0.757177  0.123877  0.877254  1
  H  H45  1  0.414790  0.636718  0.066638  1
  H  H46  1  0.585210  0.363282  0.566638  1
  H  H47  1  0.016839  0.641651  0.392057  1
  H  H48  1  0.983161  0.358350  0.892057  1
  H  H49  1  0.094688  0.477993  0.270572  1
  H  H50  1  0.905312  0.522007  0.770572  1
  H  H51  1  0.414902  0.382037  0.408018  1
  H  H52  1  0.585098  0.617963  0.908018  1
  H  H53  1  0.402912  0.604255  0.448753  1
  H  H54  1  0.597088  0.395745  0.948753  1
  H  H55  1  0.686169  0.545173  0.285271  1
  H  H56  1  0.313831  0.454827  0.785272  1
  H  H57  1  0.565747  0.398327  0.203536  1
  H  H58  1  0.434253  0.601673  0.703536  1
  H  H59  1  0.927058  0.529915  0.090557  1
  H  H60  1  0.072943  0.470084  0.590557  1
  H  H61  1  0.838869  0.699932  0.973841  1
  H  H62  1  0.161130  0.300068  0.473841  1
  H  H63  1  0.127230  0.585101  0.991015  1
  H  H64  1  0.872770  0.414899  0.491015  1
  O  O65  1  0.550371  0.954926  0.996008  1
  O  O66  1  0.449629  0.045074  0.496008  1
  O  O67  1  0.583284  0.900851  0.257659  1
  O  O68  1  0.416716  0.099149  0.757659  1
  O  O69  1  0.977316  0.778802  0.128018  1
  O  O70  1  0.022684  0.221198  0.628018  1
 
# Source:                            Grazulis_etal:NucleicAcidsRes.40.D420(2012)                                     
# Class:                             organic_molec_crystal                                                           
# Label:                             COD-2001549                                                                     
# Structure prediction method used:  NA                                                                              
# Number of atoms:                    70
# Number of atom types:                3
# Atom types:                         C  H  O
# Dielectric constant, electronic:   2.70068E+00
# Dielectric constant, ionic:        3.12801E-01
# Dielectric constant, total:        3.01348E+00
# Band gap at the GGA level (eV):    5.33740E+00
# Band gap at the HSE06 level (eV):  6.93640E+00
# Atomization energy (eV/atom):     -5.35179E+00
# Volume of the unit cell (A^3):     4.94665E+02
