# generated using pymatgen
data_H2C3O
_symmetry_space_group_name_H-M   'P 1'
_cell_length_a   3.47804264
_cell_length_b   6.38938786
_cell_length_c   9.16835191
_cell_angle_alpha   94.06469654
_cell_angle_beta   95.38871324
_cell_angle_gamma   96.01369683
_symmetry_Int_Tables_number   1
_chemical_formula_structural   H2C3O
_chemical_formula_sum   'H8 C12 O4'
_cell_volume   201.05600486
_cell_formula_units_Z   4
loop_
 _symmetry_equiv_pos_site_id
 _symmetry_equiv_pos_as_xyz
  1  'x, y, z'
loop_
 _atom_site_type_symbol
 _atom_site_label
 _atom_site_symmetry_multiplicity
 _atom_site_fract_x
 _atom_site_fract_y
 _atom_site_fract_z
 _atom_site_occupancy
  C  C1  1  0.327671  0.738449  0.592276  1
  C  C2  1  0.672329  0.261551  0.407724  1
  C  C3  1  0.302213  0.675075  0.732937  1
  C  C4  1  0.697787  0.324925  0.267063  1
  C  C5  1  0.395720  0.471828  0.767783  1
  C  C6  1  0.604280  0.528172  0.232217  1
  C  C7  1  0.516691  0.336718  0.662629  1
  C  C8  1  0.483309  0.663282  0.337371  1
  C  C9  1  0.547495  0.397077  0.517840  1
  C  C10  1  0.452505  0.602923  0.482160  1
  C  C11  1  0.172202  0.819568  0.846030  1
  C  C12  1  0.827798  0.180432  0.153970  1
  H  H13  1  0.250827  0.892715  0.566225  1
  H  H14  1  0.749173  0.107285  0.433775  1
  H  H15  1  0.084710  0.850887  0.053356  1
  H  H16  1  0.915290  0.149113  0.946644  1
  H  H17  1  0.371941  0.425425  0.877628  1
  H  H18  1  0.628059  0.574575  0.122372  1
  H  H19  1  0.593089  0.183333  0.689563  1
  H  H20  1  0.406911  0.816667  0.310437  1
  O  O21  1  0.061221  0.994193  0.819813  1
  O  O22  1  0.938779  0.005807  0.180187  1
  O  O23  1  0.183097  0.747731  0.980152  1
  O  O24  1  0.816903  0.252269  0.019848  1
 
# Source:                            Grazulis_etal:NucleicAcidsRes.40.D420(2012)                                     
# Class:                             organic_molec_crystal                                                           
# Label:                             COD-2002929                                                                     
# Structure prediction method used:  NA                                                                              
# Number of atoms:                    24
# Number of atom types:                3
# Atom types:                         C  H  O
# Dielectric constant, electronic:   3.67644E+00
# Dielectric constant, ionic:        8.70952E-01
# Dielectric constant, total:        4.54739E+00
# Band gap at the GGA level (eV):    1.70050E+00
# Band gap at the HSE06 level (eV):  2.46040E+00
# Atomization energy (eV/atom):     -6.40730E+00
# Volume of the unit cell (A^3):     2.01056E+02
