# generated using pymatgen
data_H4C2O
_symmetry_space_group_name_H-M   'P 1'
_cell_length_a   4.37137530
_cell_length_b   7.95730784
_cell_length_c   6.62846641
_cell_angle_alpha   90.00000000
_cell_angle_beta   116.48069693
_cell_angle_gamma   90.00000000
_symmetry_Int_Tables_number   1
_chemical_formula_structural   H4C2O
_chemical_formula_sum   'H16 C8 O4'
_cell_volume   206.377057192
_cell_formula_units_Z   4
loop_
 _symmetry_equiv_pos_site_id
 _symmetry_equiv_pos_as_xyz
  1  'x, y, z'
loop_
 _atom_site_type_symbol
 _atom_site_label
 _atom_site_symmetry_multiplicity
 _atom_site_fract_x
 _atom_site_fract_y
 _atom_site_fract_z
 _atom_site_occupancy
  C  C1  1  0.159398  0.054204  0.310423  1
  C  C2  1  0.840602  0.945796  0.689577  1
  C  C3  1  0.840602  0.554204  0.189577  1
  C  C4  1  0.159398  0.445796  0.810423  1
  C  C5  1  0.365007  0.137068  0.215284  1
  C  C6  1  0.634993  0.862932  0.784716  1
  C  C7  1  0.634993  0.637068  0.284716  1
  C  C8  1  0.365007  0.362932  0.715284  1
  H  H9  1  0.162120  0.103865  0.463091  1
  H  H10  1  0.837880  0.896135  0.536909  1
  H  H11  1  0.837880  0.603865  0.036909  1
  H  H12  1  0.162120  0.396135  0.963091  1
  H  H13  1  0.092854  0.922791  0.274187  1
  H  H14  1  0.907146  0.077209  0.725813  1
  H  H15  1  0.907146  0.422791  0.225813  1
  H  H16  1  0.092854  0.577209  0.774187  1
  H  H17  1  0.444291  0.065566  0.107737  1
  H  H18  1  0.555709  0.934434  0.892263  1
  H  H19  1  0.555709  0.565566  0.392263  1
  H  H20  1  0.444291  0.434434  0.607737  1
  H  H21  1  0.522025  0.244493  0.300505  1
  H  H22  1  0.477975  0.755507  0.699495  1
  H  H23  1  0.477975  0.744493  0.199495  1
  H  H24  1  0.522025  0.255507  0.800505  1
  O  O25  1  0.993628  0.167324  0.115076  1
  O  O26  1  0.006372  0.832676  0.884924  1
  O  O27  1  0.006372  0.667324  0.384924  1
  O  O28  1  0.993628  0.332676  0.615076  1
 
# Source:                            Grazulis_etal:NucleicAcidsRes.40.D420(2012)                                     
# Class:                             organic_molec_crystal                                                           
# Label:                             COD-2104132                                                                     
# Structure prediction method used:  NA                                                                              
# Number of atoms:                    28
# Number of atom types:                3
# Atom types:                         C  H  O
# Dielectric constant, electronic:   2.52013E+00
# Dielectric constant, ionic:        3.84293E-01
# Dielectric constant, total:        2.90442E+00
# Band gap at the GGA level (eV):    5.42880E+00
# Band gap at the HSE06 level (eV):  7.37780E+00
# Atomization energy (eV/atom):     -5.08625E+00
# Volume of the unit cell (A^3):     2.06377E+02
