# generated using pymatgen
data_H16C10O
_symmetry_space_group_name_H-M   'P 1'
_cell_length_a   5.72227992
_cell_length_b   9.82509192
_cell_length_c   6.79567270
_cell_angle_alpha   90.00000000
_cell_angle_beta   91.47649778
_cell_angle_gamma   90.00000000
_symmetry_Int_Tables_number   1
_chemical_formula_structural   H16C10O
_chemical_formula_sum   'H32 C20 O2'
_cell_volume   381.93895463
_cell_formula_units_Z   2
loop_
 _symmetry_equiv_pos_site_id
 _symmetry_equiv_pos_as_xyz
  1  'x, y, z'
loop_
 _atom_site_type_symbol
 _atom_site_label
 _atom_site_symmetry_multiplicity
 _atom_site_fract_x
 _atom_site_fract_y
 _atom_site_fract_z
 _atom_site_occupancy
  C  C1  1  0.759698  0.742071  0.315470  1
  C  C2  1  0.240302  0.242071  0.684530  1
  C  C3  1  0.770961  0.734503  0.091839  1
  C  C4  1  0.229039  0.234503  0.908161  1
  C  C5  1  0.918276  0.856764  0.023453  1
  C  C6  1  0.081724  0.356764  0.976547  1
  C  C7  1  0.976876  0.927971  0.224853  1
  C  C8  1  0.023124  0.427971  0.775147  1
  C  C9  1  0.754908  0.994277  0.309293  1
  C  C10  1  0.245092  0.494277  0.690707  1
  C  C11  1  0.595704  0.869164  0.347713  1
  C  C12  1  0.404296  0.369164  0.652287  1
  C  C13  1  0.004224  0.803964  0.365718  1
  C  C14  1  0.995776  0.303964  0.634282  1
  C  C15  1  0.682523  0.614399  0.420419  1
  C  C16  1  0.317477  0.114399  0.579581  1
  C  C17  1  0.142150  0.803802  0.925875  1
  C  C18  1  0.857850  0.303802  0.074125  1
  C  C19  1  0.776930  0.941537  0.872001  1
  C  C20  1  0.223070  0.441537  0.127999  1
  H  H21  1  0.125443  0.996630  0.216639  1
  H  H22  1  0.874557  0.496630  0.783361  1
  H  H23  1  0.669475  0.067998  0.212302  1
  H  H24  1  0.330525  0.567998  0.787698  1
  H  H25  1  0.801917  0.046830  0.446629  1
  H  H26  1  0.198083  0.546830  0.553371  1
  H  H27  1  0.444560  0.867380  0.247084  1
  H  H28  1  0.555440  0.367380  0.752916  1
  H  H29  1  0.529489  0.865496  0.497023  1
  H  H30  1  0.470511  0.365496  0.502977  1
  H  H31  1  0.147450  0.734943  0.332054  1
  H  H32  1  0.852550  0.234943  0.667946  1
  H  H33  1  0.022375  0.833695  0.520026  1
  H  H34  1  0.977625  0.333695  0.479974  1
  H  H35  1  0.673864  0.632630  0.579003  1
  H  H36  1  0.326136  0.132630  0.420997  1
  H  H37  1  0.801922  0.529515  0.396067  1
  H  H38  1  0.198078  0.029515  0.603933  1
  H  H39  1  0.509198  0.583582  0.366478  1
  H  H40  1  0.490802  0.083582  0.633522  1
  H  H41  1  0.247438  0.738233  0.022627  1
  H  H42  1  0.752562  0.238233  0.977373  1
  H  H43  1  0.250189  0.890221  0.883108  1
  H  H44  1  0.749811  0.390221  0.116892  1
  H  H45  1  0.094919  0.744857  0.794700  1
  H  H46  1  0.905081  0.244857  0.205300  1
  H  H47  1  0.617406  0.984021  0.931212  1
  H  H48  1  0.382594  0.484021  0.068788  1
  H  H49  1  0.727857  0.876634  0.747155  1
  H  H50  1  0.272143  0.376634  0.252845  1
  H  H51  1  0.883351  0.025623  0.818158  1
  H  H52  1  0.116649  0.525623  0.181842  1
  O  O53  1  0.675531  0.649761  0.982811  1
  O  O54  1  0.324469  0.149761  0.017189  1
 
# Source:                            Grazulis_etal:NucleicAcidsRes.40.D420(2012)                                     
# Class:                             organic_molec_crystal                                                           
# Label:                             COD-2200617                                                                     
# Structure prediction method used:  NA                                                                              
# Number of atoms:                    54
# Number of atom types:                3
# Atom types:                         C  H  O
# Dielectric constant, electronic:   2.72514E+00
# Dielectric constant, ionic:        2.85135E-01
# Dielectric constant, total:        3.01027E+00
# Band gap at the GGA level (eV):    3.67760E+00
# Band gap at the HSE06 level (eV):  5.43770E+00
# Atomization energy (eV/atom):     -5.38856E+00
# Volume of the unit cell (A^3):     3.81939E+02
