# generated using pymatgen
data_H12C10O3
_symmetry_space_group_name_H-M   'P 1'
_cell_length_a   6.44930942
_cell_length_b   6.58846607
_cell_length_c   10.13935777
_cell_angle_alpha   73.50480992
_cell_angle_beta   86.29570710
_cell_angle_gamma   67.75220629
_symmetry_Int_Tables_number   1
_chemical_formula_structural   H12C10O3
_chemical_formula_sum   'H24 C20 O6'
_cell_volume   381.900411415
_cell_formula_units_Z   2
loop_
 _symmetry_equiv_pos_site_id
 _symmetry_equiv_pos_as_xyz
  1  'x, y, z'
loop_
 _atom_site_type_symbol
 _atom_site_label
 _atom_site_symmetry_multiplicity
 _atom_site_fract_x
 _atom_site_fract_y
 _atom_site_fract_z
 _atom_site_occupancy
  C  C1  1  0.179200  0.601601  0.231527  1
  C  C2  1  0.820800  0.398399  0.768473  1
  C  C3  1  0.114264  0.428352  0.316915  1
  C  C4  1  0.885736  0.571648  0.683085  1
  C  C5  1  0.275106  0.182278  0.357220  1
  C  C6  1  0.724894  0.817722  0.642780  1
  C  C7  1  0.893759  0.489536  0.362432  1
  C  C8  1  0.106241  0.510464  0.637568  1
  C  C9  1  0.810110  0.306523  0.441490  1
  C  C10  1  0.189890  0.693477  0.558510  1
  C  C11  1  0.749418  0.719694  0.328993  1
  C  C12  1  0.250582  0.280306  0.671007  1
  C  C13  1  0.818102  0.889241  0.246256  1
  C  C14  1  0.181898  0.110759  0.753744  1
  C  C15  1  0.032276  0.830989  0.194884  1
  C  C16  1  0.967724  0.169011  0.805116  1
  C  C17  1  0.457626  0.707058  0.091987  1
  C  C18  1  0.542374  0.292942  0.908013  1
  C  C19  1  0.695093  0.602315  0.051920  1
  C  C20  1  0.304907  0.397685  0.948080  1
  H  H21  1  0.448486  0.838394  0.140197  1
  H  H22  1  0.551514  0.161606  0.859803  1
  H  H23  1  0.347853  0.789413  0.998775  1
  H  H24  1  0.652147  0.210587  0.001225  1
  H  H25  1  0.921379  0.690723  0.941843  1
  H  H26  1  0.078621  0.309277  0.058157  1
  H  H27  1  0.265508  0.101886  0.466182  1
  H  H28  1  0.734492  0.898114  0.533818  1
  H  H29  1  0.446597  0.170169  0.338410  1
  H  H30  1  0.553403  0.829831  0.661590  1
  H  H31  1  0.235565  0.082740  0.299450  1
  H  H32  1  0.764435  0.917260  0.700550  1
  H  H33  1  0.633000  0.380789  0.462392  1
  H  H34  1  0.367000  0.619211  0.537608  1
  H  H35  1  0.905096  0.207059  0.539196  1
  H  H36  1  0.094904  0.792941  0.460804  1
  H  H37  1  0.827020  0.187580  0.381269  1
  H  H38  1  0.172980  0.812420  0.618731  1
  H  H39  1  0.581554  0.764077  0.366930  1
  H  H40  1  0.418446  0.235923  0.633070  1
  H  H41  1  0.706640  0.067201  0.219333  1
  H  H42  1  0.293360  0.932799  0.780667  1
  H  H43  1  0.080959  0.962586  0.127325  1
  H  H44  1  0.919041  0.037414  0.872675  1
  O  O45  1  0.757881  0.759389  0.963976  1
  O  O46  1  0.242119  0.240611  0.036024  1
  O  O47  1  0.817093  0.397720  0.095383  1
  O  O48  1  0.182907  0.602280  0.904617  1
  O  O49  1  0.396657  0.530375  0.184231  1
  O  O50  1  0.603343  0.469625  0.815769  1
 
# Source:                            Grazulis_etal:NucleicAcidsRes.40.D420(2012)                                     
# Class:                             organic_molec_crystal                                                           
# Label:                             COD-2214905                                                                     
# Structure prediction method used:  NA                                                                              
# Number of atoms:                    50
# Number of atom types:                3
# Atom types:                         C  H  O
# Dielectric constant, electronic:   3.02209E+00
# Dielectric constant, ionic:        3.99535E-01
# Dielectric constant, total:        3.42162E+00
# Band gap at the GGA level (eV):    3.22300E+00
# Band gap at the HSE06 level (eV):  4.41470E+00
# Atomization energy (eV/atom):     -5.76749E+00
# Volume of the unit cell (A^3):     3.81900E+02
