# generated using pymatgen
data_H3C2O
_symmetry_space_group_name_H-M   'P 1'
_cell_length_a   5.51392082
_cell_length_b   5.67190502
_cell_length_c   5.98967205
_cell_angle_alpha   92.87764945
_cell_angle_beta   111.90146273
_cell_angle_gamma   97.05007549
_symmetry_Int_Tables_number   1
_chemical_formula_structural   H3C2O
_chemical_formula_sum   'H12 C8 O4'
_cell_volume   171.550069423
_cell_formula_units_Z   4
loop_
 _symmetry_equiv_pos_site_id
 _symmetry_equiv_pos_as_xyz
  1  'x, y, z'
loop_
 _atom_site_type_symbol
 _atom_site_label
 _atom_site_symmetry_multiplicity
 _atom_site_fract_x
 _atom_site_fract_y
 _atom_site_fract_z
 _atom_site_occupancy
  C  C1  1  0.752327  0.358686  0.804046  1
  C  C2  1  0.247673  0.641314  0.195954  1
  C  C3  1  0.797438  0.635022  0.840827  1
  C  C4  1  0.202562  0.364978  0.159173  1
  C  C5  1  0.913984  0.261427  0.037953  1
  C  C6  1  0.086016  0.738573  0.962047  1
  C  C7  1  0.832124  0.268677  0.598273  1
  C  C8  1  0.167876  0.731323  0.401727  1
  H  H9  1  0.042051  0.322443  0.638934  1
  H  H10  1  0.957949  0.677557  0.361066  1
  H  H11  1  0.719016  0.345520  0.435634  1
  H  H12  1  0.280984  0.654480  0.564366  1
  H  H13  1  0.452036  0.129954  0.812189  1
  H  H14  1  0.547964  0.870046  0.187811  1
  H  H15  1  0.713695  0.706091  0.667249  1
  H  H16  1  0.286305  0.293909  0.332751  1
  H  H17  1  0.695889  0.687524  0.956698  1
  H  H18  1  0.304111  0.312476  0.043302  1
  H  H19  1  0.788671  0.074660  0.566197  1
  H  H20  1  0.211329  0.925340  0.433803  1
  O  O21  1  0.473196  0.280064  0.741725  1
  O  O22  1  0.526804  0.719936  0.258275  1
  O  O23  1  0.809475  0.100947  0.119152  1
  O  O24  1  0.190525  0.899053  0.880848  1
 
# Source:                            Grazulis_etal:NucleicAcidsRes.40.D420(2012)                                     
# Class:                             organic_molec_crystal                                                           
# Label:                             COD-2216740                                                                     
# Structure prediction method used:  NA                                                                              
# Number of atoms:                    24
# Number of atom types:                3
# Atom types:                         C  H  O
# Dielectric constant, electronic:   2.83178E+00
# Dielectric constant, ionic:        7.70022E-01
# Dielectric constant, total:        3.60181E+00
# Band gap at the GGA level (eV):    3.10660E+00
# Band gap at the HSE06 level (eV):  4.92430E+00
# Atomization energy (eV/atom):     -5.55739E+00
# Volume of the unit cell (A^3):     1.71550E+02
