# generated using pymatgen
data_H7C5O2
_symmetry_space_group_name_H-M   'P 1'
_cell_length_a   8.23260633
_cell_length_b   4.88856100
_cell_length_c   10.34944533
_cell_angle_alpha   90.00000000
_cell_angle_beta   91.64703616
_cell_angle_gamma   90.00000000
_symmetry_Int_Tables_number   1
_chemical_formula_structural   H7C5O2
_chemical_formula_sum   'H28 C20 O8'
_cell_volume   416.347535924
_cell_formula_units_Z   4
loop_
 _symmetry_equiv_pos_site_id
 _symmetry_equiv_pos_as_xyz
  1  'x, y, z'
loop_
 _atom_site_type_symbol
 _atom_site_label
 _atom_site_symmetry_multiplicity
 _atom_site_fract_x
 _atom_site_fract_y
 _atom_site_fract_z
 _atom_site_occupancy
  C  C1  1  0.402223  0.866787  0.822850  1
  C  C2  1  0.597777  0.366787  0.177150  1
  C  C3  1  0.374209  0.816322  0.946684  1
  C  C4  1  0.625791  0.316322  0.053316  1
  C  C5  1  0.236618  0.638051  0.987038  1
  C  C6  1  0.763382  0.138051  0.012962  1
  C  C7  1  0.109605  0.616008  0.879053  1
  C  C8  1  0.890395  0.116008  0.120947  1
  C  C9  1  0.174610  0.578903  0.743697  1
  C  C10  1  0.825390  0.078903  0.256303  1
  C  C11  1  0.035724  0.687857  0.655631  1
  C  C12  1  0.964276  0.187857  0.344369  1
  C  C13  1  0.946035  0.889972  0.744903  1
  C  C14  1  0.053965  0.389972  0.255097  1
  C  C15  1  0.755536  0.594637  0.644904  1
  C  C16  1  0.244464  0.094637  0.355096  1
  C  C17  1  0.696555  0.744290  0.523095  1
  C  C18  1  0.303445  0.244290  0.476905  1
  C  C19  1  0.640321  0.371850  0.684499  1
  C  C20  1  0.359679  0.871850  0.315501  1
  H  H21  1  0.500575  0.990631  0.789074  1
  H  H22  1  0.499425  0.490631  0.210926  1
  H  H23  1  0.451666  0.911566  0.019838  1
  H  H24  1  0.548334  0.411566  0.980162  1
  H  H25  1  0.178616  0.725087  0.071027  1
  H  H26  1  0.821384  0.225087  0.928973  1
  H  H27  1  0.276257  0.431866  0.015816  1
  H  H28  1  0.723743  0.931866  0.984184  1
  H  H29  1  0.021715  0.454948  0.898330  1
  H  H30  1  0.978285  0.954948  0.101670  1
  H  H31  1  0.210479  0.368042  0.724058  1
  H  H32  1  0.789521  0.868042  0.275942  1
  H  H33  1  0.078984  0.782561  0.567756  1
  H  H34  1  0.921016  0.282561  0.432244  1
  H  H35  1  0.941056  0.101151  0.712848  1
  H  H36  1  0.058944  0.601151  0.287152  1
  H  H37  1  0.575155  0.826517  0.537720  1
  H  H38  1  0.424845  0.326517  0.462280  1
  H  H39  1  0.690564  0.601945  0.441697  1
  H  H40  1  0.309436  0.101945  0.558303  1
  H  H41  1  0.778225  0.912229  0.500776  1
  H  H42  1  0.221775  0.412229  0.499224  1
  H  H43  1  0.684937  0.275179  0.772952  1
  H  H44  1  0.315063  0.775179  0.227048  1
  H  H45  1  0.630012  0.219173  0.608341  1
  H  H46  1  0.369988  0.719173  0.391659  1
  H  H47  1  0.520663  0.459482  0.699123  1
  H  H48  1  0.479337  0.959482  0.300877  1
  O  O49  1  0.312273  0.761795  0.717383  1
  O  O50  1  0.687727  0.261795  0.282617  1
  O  O51  1  0.025028  0.881606  0.868029  1
  O  O52  1  0.974972  0.381606  0.131971  1
  O  O53  1  0.917330  0.476282  0.624179  1
  O  O54  1  0.082670  0.976282  0.375821  1
  O  O55  1  0.782079  0.779234  0.752241  1
  O  O56  1  0.217921  0.279234  0.247759  1
 
# Source:                            Grazulis_etal:NucleicAcidsRes.40.D420(2012)                                     
# Class:                             organic_molec_crystal                                                           
# Label:                             COD-4028710                                                                     
# Structure prediction method used:  NA                                                                              
# Number of atoms:                    56
# Number of atom types:                3
# Atom types:                         C  H  O
# Dielectric constant, electronic:   2.72641E+00
# Dielectric constant, ionic:        4.14971E-01
# Dielectric constant, total:        3.14138E+00
# Band gap at the GGA level (eV):    4.67210E+00
# Band gap at the HSE06 level (eV):  6.07420E+00
# Atomization energy (eV/atom):     -5.54470E+00
# Volume of the unit cell (A^3):     4.16348E+02
