# generated using pymatgen
data_H9C5O
_symmetry_space_group_name_H-M   'P 1'
_cell_length_a   5.13131585
_cell_length_b   9.27755900
_cell_length_c   8.86527128
_cell_angle_alpha   90.00000000
_cell_angle_beta   91.91664061
_cell_angle_gamma   90.00000000
_symmetry_Int_Tables_number   1
_chemical_formula_structural   H9C5O
_chemical_formula_sum   'H36 C20 O4'
_cell_volume   421.804749845
_cell_formula_units_Z   4
loop_
 _symmetry_equiv_pos_site_id
 _symmetry_equiv_pos_as_xyz
  1  'x, y, z'
loop_
 _atom_site_type_symbol
 _atom_site_label
 _atom_site_symmetry_multiplicity
 _atom_site_fract_x
 _atom_site_fract_y
 _atom_site_fract_z
 _atom_site_occupancy
  C  C1  1  0.238849  0.347136  0.761534  1
  C  C2  1  0.761151  0.847136  0.238466  1
  C  C3  1  0.397419  0.482585  0.753207  1
  C  C4  1  0.602581  0.982585  0.246793  1
  C  C5  1  0.261147  0.628058  0.745353  1
  C  C6  1  0.738853  0.128058  0.254647  1
  C  C7  1  0.321066  0.711307  0.895303  1
  C  C8  1  0.678934  0.211307  0.104697  1
  C  C9  1  0.333655  0.715086  0.601712  1
  C  C10  1  0.666345  0.215086  0.398288  1
  C  C11  1  0.210095  0.865625  0.604365  1
  C  C12  1  0.789905  0.365625  0.395635  1
  C  C13  1  0.195385  0.861412  0.887522  1
  C  C14  1  0.804615  0.361412  0.112478  1
  C  C15  1  0.279655  0.947498  0.750142  1
  C  C16  1  0.720345  0.447498  0.249858  1
  C  C17  1  0.216592  0.627214  0.029253  1
  C  C18  1  0.783408  0.127214  0.970747  1
  C  C19  1  0.243415  0.634174  0.458934  1
  C  C20  1  0.756585  0.134174  0.541066  1
  H  H21  1  0.045676  0.365960  0.804563  1
  H  H22  1  0.954324  0.865960  0.195437  1
  H  H23  1  0.344537  0.265425  0.827562  1
  H  H24  1  0.655463  0.765425  0.172438  1
  H  H25  1  0.215561  0.306188  0.645443  1
  H  H26  1  0.784439  0.806188  0.354557  1
  H  H27  1  0.050671  0.609180  0.738357  1
  H  H28  1  0.949329  0.109180  0.261643  1
  H  H29  1  0.698464  0.650902  0.643133  1
  H  H30  1  0.301536  0.150902  0.356867  1
  H  H31  1  0.534146  0.723037  0.908386  1
  H  H32  1  0.465854  0.223037  0.091614  1
  H  H33  1  0.998607  0.853650  0.592632  1
  H  H34  1  0.001393  0.353650  0.407368  1
  H  H35  1  0.273663  0.924236  0.505082  1
  H  H36  1  0.726337  0.424236  0.494918  1
  H  H37  1  0.982172  0.847614  0.881907  1
  H  H38  1  0.017828  0.347614  0.118093  1
  H  H39  1  0.243237  0.919138  0.992415  1
  H  H40  1  0.756763  0.419138  0.007585  1
  H  H41  1  0.185576  0.053139  0.748118  1
  H  H42  1  0.814424  0.553139  0.251882  1
  H  H43  1  0.490000  0.965761  0.757978  1
  H  H44  1  0.510000  0.465761  0.242022  1
  H  H45  1  0.301040  0.519368  0.039762  1
  H  H46  1  0.698960  0.019368  0.960238  1
  H  H47  1  0.004881  0.615425  0.015372  1
  H  H48  1  0.995119  0.115425  0.984628  1
  H  H49  1  0.257182  0.684565  0.134844  1
  H  H50  1  0.742818  0.184565  0.865156  1
  H  H51  1  0.328204  0.526421  0.453478  1
  H  H52  1  0.671796  0.026421  0.546522  1
  H  H53  1  0.300027  0.695359  0.360196  1
  H  H54  1  0.699973  0.195359  0.639804  1
  H  H55  1  0.031324  0.623545  0.455436  1
  H  H56  1  0.968676  0.123545  0.544564  1
  O  O57  1  0.640002  0.476468  0.751716  1
  O  O58  1  0.359998  0.976468  0.248284  1
  O  O59  1  0.617641  0.737824  0.599370  1
  O  O60  1  0.382359  0.237824  0.400630  1
 
# Source:                            Grazulis_etal:NucleicAcidsRes.40.D420(2012)                                     
# Class:                             organic_molec_crystal                                                           
# Label:                             COD-4108581                                                                     
# Structure prediction method used:  NA                                                                              
# Number of atoms:                    60
# Number of atom types:                3
# Atom types:                         C  H  O
# Dielectric constant, electronic:   2.69102E+00
# Dielectric constant, ionic:        4.99843E-01
# Dielectric constant, total:        3.19087E+00
# Band gap at the GGA level (eV):    3.59840E+00
# Band gap at the HSE06 level (eV):  5.40620E+00
# Atomization energy (eV/atom):     -5.31455E+00
# Volume of the unit cell (A^3):     4.21805E+02
