# generated using pymatgen
data_H3(CO)2
_symmetry_space_group_name_H-M   'P 1'
_cell_length_a   5.27943509
_cell_length_b   8.33086200
_cell_length_c   4.71233060
_cell_angle_alpha   90.00000000
_cell_angle_beta   99.31477733
_cell_angle_gamma   90.00000000
_symmetry_Int_Tables_number   1
_chemical_formula_structural   H3(CO)2
_chemical_formula_sum   'H12 C8 O8'
_cell_volume   204.525965176
_cell_formula_units_Z   4
loop_
 _symmetry_equiv_pos_site_id
 _symmetry_equiv_pos_as_xyz
  1  'x, y, z'
loop_
 _atom_site_type_symbol
 _atom_site_label
 _atom_site_symmetry_multiplicity
 _atom_site_fract_x
 _atom_site_fract_y
 _atom_site_fract_z
 _atom_site_occupancy
  C  C1  1  0.760879  0.534202  0.266486  1
  C  C2  1  0.239121  0.465798  0.733514  1
  C  C3  1  0.239121  0.034202  0.233514  1
  C  C4  1  0.760879  0.965798  0.766486  1
  C  C5  1  0.585958  0.570540  0.478608  1
  C  C6  1  0.414042  0.429460  0.521392  1
  C  C7  1  0.414042  0.070540  0.021392  1
  C  C8  1  0.585958  0.929460  0.978608  1
  H  H9  1  0.703685  0.607280  0.679382  1
  H  H10  1  0.296315  0.392720  0.320618  1
  H  H11  1  0.296315  0.107280  0.820618  1
  H  H12  1  0.703685  0.892720  0.179382  1
  H  H13  1  0.049910  0.626682  0.108033  1
  H  H14  1  0.950090  0.373318  0.891967  1
  H  H15  1  0.950090  0.126682  0.391967  1
  H  H16  1  0.049910  0.873318  0.608033  1
  H  H17  1  0.472930  0.676513  0.401205  1
  H  H18  1  0.527070  0.323487  0.598795  1
  H  H19  1  0.527070  0.176513  0.098795  1
  H  H20  1  0.472930  0.823487  0.901205  1
  O  O21  1  0.939200  0.647667  0.260442  1
  O  O22  1  0.060800  0.352333  0.739558  1
  O  O23  1  0.060800  0.147667  0.239558  1
  O  O24  1  0.939200  0.852333  0.760442  1
  O  O25  1  0.743264  0.412981  0.111041  1
  O  O26  1  0.256736  0.587019  0.888959  1
  O  O27  1  0.256736  0.912981  0.388959  1
  O  O28  1  0.743264  0.087019  0.611041  1
 
# Source:                            Grazulis_etal:NucleicAcidsRes.40.D420(2012)                                     
# Class:                             organic_molec_crystal                                                           
# Label:                             COD-4116141                                                                     
# Structure prediction method used:  NA                                                                              
# Number of atoms:                    28
# Number of atom types:                3
# Atom types:                         C  H  O
# Dielectric constant, electronic:   2.73371E+00
# Dielectric constant, ionic:        8.90443E-01
# Dielectric constant, total:        3.62415E+00
# Band gap at the GGA level (eV):    5.01240E+00
# Band gap at the HSE06 level (eV):  6.97900E+00
# Atomization energy (eV/atom):     -5.75487E+00
# Volume of the unit cell (A^3):     2.04526E+02
