# generated using pymatgen
data_H5C5O3
_symmetry_space_group_name_H-M   'P 1'
_cell_length_a   6.38592507
_cell_length_b   6.78766160
_cell_length_c   10.82304166
_cell_angle_alpha   71.78732123
_cell_angle_beta   76.21197552
_cell_angle_gamma   68.14428256
_symmetry_Int_Tables_number   1
_chemical_formula_structural   H5C5O3
_chemical_formula_sum   'H20 C20 O12'
_cell_volume   409.620433391
_cell_formula_units_Z   4
loop_
 _symmetry_equiv_pos_site_id
 _symmetry_equiv_pos_as_xyz
  1  'x, y, z'
loop_
 _atom_site_type_symbol
 _atom_site_label
 _atom_site_symmetry_multiplicity
 _atom_site_fract_x
 _atom_site_fract_y
 _atom_site_fract_z
 _atom_site_occupancy
  C  C1  1  0.133114  0.187315  0.034717  1
  C  C2  1  0.866886  0.812685  0.965283  1
  C  C3  1  0.232516  0.332602  0.066867  1
  C  C4  1  0.767484  0.667398  0.933133  1
  C  C5  1  0.100906  0.571258  0.219088  1
  C  C6  1  0.899094  0.428742  0.780912  1
  C  C7  1  0.287803  0.645199  0.183220  1
  C  C8  1  0.712197  0.354801  0.816780  1
  C  C9  1  0.302984  0.780749  0.253292  1
  C  C10  1  0.697016  0.219251  0.746708  1
  C  C11  1  0.136103  0.841508  0.356344  1
  C  C12  1  0.863897  0.158492  0.643656  1
  C  C13  1  0.950720  0.761584  0.390807  1
  C  C14  1  0.049280  0.238416  0.609193  1
  C  C15  1  0.930670  0.629574  0.321595  1
  C  C16  1  0.069330  0.370426  0.678405  1
  C  C17  1  0.606466  0.728493  0.529039  1
  C  C18  1  0.393534  0.271507  0.470961  1
  C  C19  1  0.455200  0.789759  0.650227  1
  C  C20  1  0.544800  0.210241  0.349773  1
  H  H21  1  0.386488  0.232705  0.111860  1
  H  H22  1  0.613512  0.767295  0.888140  1
  H  H23  1  0.270946  0.449244  0.976288  1
  H  H24  1  0.729054  0.550756  0.023712  1
  H  H25  1  0.417594  0.599584  0.103431  1
  H  H26  1  0.582406  0.400416  0.896569  1
  H  H27  1  0.447453  0.839196  0.226411  1
  H  H28  1  0.552547  0.160804  0.773589  1
  H  H29  1  0.146801  0.949279  0.408373  1
  H  H30  1  0.853199  0.050721  0.591627  1
  H  H31  1  0.790995  0.566119  0.344219  1
  H  H32  1  0.209005  0.433881  0.655781  1
  H  H33  1  0.672399  0.550064  0.548246  1
  H  H34  1  0.327601  0.449936  0.451754  1
  H  H35  1  0.505175  0.792180  0.448547  1
  H  H36  1  0.494825  0.207820  0.551453  1
  H  H37  1  0.193366  0.989916  0.926833  1
  H  H38  1  0.806634  0.010084  0.073167  1
  H  H39  1  0.181639  0.744956  0.760084  1
  H  H40  1  0.818361  0.255044  0.239916  1
  O  O41  1  0.268302  0.082379  0.945844  1
  O  O42  1  0.731698  0.917621  0.054156  1
  O  O43  1  0.942029  0.171250  0.087004  1
  O  O44  1  0.057971  0.828750  0.912996  1
  O  O45  1  0.057604  0.443320  0.156335  1
  O  O46  1  0.942396  0.556680  0.843665  1
  O  O47  1  0.790668  0.819044  0.496480  1
  O  O48  1  0.209332  0.180956  0.503520  1
  O  O49  1  0.279758  0.711320  0.677829  1
  O  O50  1  0.720242  0.288680  0.322171  1
  O  O51  1  0.484277  0.893155  0.715939  1
  O  O52  1  0.515723  0.106845  0.284061  1
 
# Source:                            Grazulis_etal:NucleicAcidsRes.40.D420(2012)                                     
# Class:                             organic_molec_crystal                                                           
# Label:                             COD-7050194                                                                     
# Structure prediction method used:  NA                                                                              
# Number of atoms:                    52
# Number of atom types:                3
# Atom types:                         C  H  O
# Dielectric constant, electronic:   3.04349E+00
# Dielectric constant, ionic:        7.89205E-01
# Dielectric constant, total:        3.83270E+00
# Band gap at the GGA level (eV):    2.97150E+00
# Band gap at the HSE06 level (eV):  4.30690E+00
# Atomization energy (eV/atom):     -5.97308E+00
# Volume of the unit cell (A^3):     4.09620E+02
