# generated using pymatgen
data_HCO
_symmetry_space_group_name_H-M   'P 1'
_cell_length_a   3.27636306
_cell_length_b   7.41006557
_cell_length_c   7.92434957
_cell_angle_alpha   90.00000000
_cell_angle_beta   96.73061952
_cell_angle_gamma   90.00000000
_symmetry_Int_Tables_number   1
_chemical_formula_structural   HCO
_chemical_formula_sum   'H8 C8 O8'
_cell_volume   191.061967739
_cell_formula_units_Z   8
loop_
 _symmetry_equiv_pos_site_id
 _symmetry_equiv_pos_as_xyz
  1  'x, y, z'
loop_
 _atom_site_type_symbol
 _atom_site_label
 _atom_site_symmetry_multiplicity
 _atom_site_fract_x
 _atom_site_fract_y
 _atom_site_fract_z
 _atom_site_occupancy
  C  C1  1  0.916272  0.447578  0.732811  1
  C  C2  1  0.916272  0.552422  0.232811  1
  C  C3  1  0.164755  0.363837  0.880045  1
  C  C4  1  0.164755  0.636163  0.380045  1
  C  C5  1  0.237836  0.190492  0.923921  1
  C  C6  1  0.237836  0.809508  0.423921  1
  C  C7  1  0.089269  0.026437  0.831017  1
  C  C8  1  0.089269  0.973563  0.331017  1
  H  H9  1  0.770476  0.214650  0.625376  1
  H  H10  1  0.770476  0.785350  0.125376  1
  H  H11  1  0.310640  0.464678  0.965179  1
  H  H12  1  0.310640  0.535322  0.465179  1
  H  H13  1  0.435088  0.165682  0.040966  1
  H  H14  1  0.435088  0.834318  0.540966  1
  H  H15  1  0.110283  0.766489  0.840026  1
  H  H16  1  0.110283  0.233511  0.340026  1
  O  O17  1  0.736896  0.350332  0.603701  1
  O  O18  1  0.736896  0.649668  0.103701  1
  O  O19  1  0.867731  0.614457  0.726780  1
  O  O20  1  0.867731  0.385543  0.226780  1
  O  O21  1  0.235863  0.875455  0.905038  1
  O  O22  1  0.235863  0.124545  0.405038  1
  O  O23  1  0.846991  0.024818  0.696701  1
  O  O24  1  0.846991  0.975182  0.196701  1
 
# Source:                            Grazulis_etal:NucleicAcidsRes.40.D420(2012)                                     
# Class:                             organic_molec_crystal                                                           
# Label:                             COD-7100673                                                                     
# Structure prediction method used:  NA                                                                              
# Number of atoms:                    24
# Number of atom types:                3
# Atom types:                         C  H  O
# Dielectric constant, electronic:   3.10534E+00
# Dielectric constant, ionic:        1.44940E+00
# Dielectric constant, total:        4.55474E+00
# Band gap at the GGA level (eV):    2.57050E+00
# Band gap at the HSE06 level (eV):  3.75270E+00
# Atomization energy (eV/atom):     -6.04066E+00
# Volume of the unit cell (A^3):     1.91062E+02
