# generated using pymatgen
data_H8C5O2
_symmetry_space_group_name_H-M   'P 1'
_cell_length_a   6.06022209
_cell_length_b   6.62346183
_cell_length_c   10.74302787
_cell_angle_alpha   94.13055905
_cell_angle_beta   104.28727591
_cell_angle_gamma   100.35179285
_symmetry_Int_Tables_number   1
_chemical_formula_structural   H8C5O2
_chemical_formula_sum   'H32 C20 O8'
_cell_volume   408.007478763
_cell_formula_units_Z   4
loop_
 _symmetry_equiv_pos_site_id
 _symmetry_equiv_pos_as_xyz
  1  'x, y, z'
loop_
 _atom_site_type_symbol
 _atom_site_label
 _atom_site_symmetry_multiplicity
 _atom_site_fract_x
 _atom_site_fract_y
 _atom_site_fract_z
 _atom_site_occupancy
  C  C1  1  0.179262  0.307773  0.731051  1
  C  C2  1  0.820738  0.692227  0.268949  1
  C  C3  1  0.347070  0.263015  0.855724  1
  C  C4  1  0.652930  0.736985  0.144276  1
  C  C5  1  0.061069  0.485363  0.763509  1
  C  C6  1  0.938931  0.514637  0.236491  1
  C  C7  1  0.299558  0.370802  0.624993  1
  C  C8  1  0.700442  0.629198  0.375007  1
  C  C9  1  0.234574  0.688419  0.815612  1
  C  C10  1  0.765426  0.311581  0.184388  1
  C  C11  1  0.483100  0.570574  0.672035  1
  C  C12  1  0.516900  0.429426  0.327965  1
  C  C13  1  0.956847  0.226149  0.896927  1
  C  C14  1  0.043153  0.773851  0.103073  1
  C  C15  1  0.986332  0.112526  0.683836  1
  C  C16  1  0.013668  0.887474  0.316164  1
  C  C17  1  0.212871  0.234675  0.961241  1
  C  C18  1  0.787129  0.765325  0.038759  1
  C  C19  1  0.371765  0.745508  0.715460  1
  C  C20  1  0.628235  0.254492  0.284540  1
  H  H21  1  0.562720  0.221241  0.604070  1
  H  H22  1  0.437280  0.778759  0.395930  1
  H  H23  1  0.410703  0.124459  0.833421  1
  H  H24  1  0.589297  0.875541  0.166579  1
  H  H25  1  0.499192  0.387648  0.888443  1
  H  H26  1  0.500808  0.612352  0.111557  1
  H  H27  1  0.740760  0.013886  0.519837  1
  H  H28  1  0.259240  0.986114  0.480163  1
  H  H29  1  0.936245  0.508918  0.675341  1
  H  H30  1  0.063755  0.491082  0.324659  1
  H  H31  1  0.165794  0.395833  0.541017  1
  H  H32  1  0.834206  0.604167  0.458983  1
  H  H33  1  0.137971  0.807715  0.832249  1
  H  H34  1  0.862029  0.192285  0.167751  1
  H  H35  1  0.350724  0.674394  0.908623  1
  H  H36  1  0.649276  0.325606  0.091377  1
  H  H37  1  0.559230  0.617121  0.593811  1
  H  H38  1  0.440770  0.382879  0.406189  1
  H  H39  1  0.622710  0.544279  0.751125  1
  H  H40  1  0.377290  0.455721  0.248875  1
  H  H41  1  0.842867  0.191708  0.959515  1
  H  H42  1  0.157133  0.808292  0.040485  1
  H  H43  1  0.052539  0.977673  0.657568  1
  H  H44  1  0.947461  0.022327  0.342432  1
  H  H45  1  0.233656  0.094026  0.005630  1
  H  H46  1  0.766344  0.905974  0.994370  1
  H  H47  1  0.269535  0.362904  0.038566  1
  H  H48  1  0.730465  0.637096  0.961434  1
  H  H49  1  0.507430  0.883615  0.752276  1
  H  H50  1  0.492570  0.116385  0.247724  1
  H  H51  1  0.251816  0.780609  0.629811  1
  H  H52  1  0.748184  0.219391  0.370189  1
  O  O53  1  0.391331  0.198638  0.580446  1
  O  O54  1  0.608669  0.801362  0.419554  1
  O  O55  1  0.922456  0.421095  0.854197  1
  O  O56  1  0.077544  0.578905  0.145803  1
  O  O57  1  0.877190  0.062466  0.788209  1
  O  O58  1  0.122810  0.937534  0.211791  1
  O  O59  1  0.816937  0.148630  0.574608  1
  O  O60  1  0.183063  0.851370  0.425392  1
 
# Source:                            Grazulis_etal:NucleicAcidsRes.40.D420(2012)                                     
# Class:                             organic_molec_crystal                                                           
# Label:                             COD-7153323                                                                     
# Structure prediction method used:  NA                                                                              
# Number of atoms:                    60
# Number of atom types:                3
# Atom types:                         C  H  O
# Dielectric constant, electronic:   2.78778E+00
# Dielectric constant, ionic:        5.77172E-01
# Dielectric constant, total:        3.36495E+00
# Band gap at the GGA level (eV):    5.67190E+00
# Band gap at the HSE06 level (eV):  7.32440E+00
# Atomization energy (eV/atom):     -5.44912E+00
# Volume of the unit cell (A^3):     4.08007E+02
