# generated using pymatgen
data_H3C5O2
_symmetry_space_group_name_H-M   'P 1'
_cell_length_a   5.91817238
_cell_length_b   11.95076000
_cell_length_c   5.35066026
_cell_angle_alpha   90.00000000
_cell_angle_beta   112.02166030
_cell_angle_gamma   90.00000000
_symmetry_Int_Tables_number   1
_chemical_formula_structural   H3C5O2
_chemical_formula_sum   'H12 C20 O8'
_cell_volume   350.824570864
_cell_formula_units_Z   4
loop_
 _symmetry_equiv_pos_site_id
 _symmetry_equiv_pos_as_xyz
  1  'x, y, z'
loop_
 _atom_site_type_symbol
 _atom_site_label
 _atom_site_symmetry_multiplicity
 _atom_site_fract_x
 _atom_site_fract_y
 _atom_site_fract_z
 _atom_site_occupancy
  C  C1  1  0.418309  0.523077  0.054988  1
  C  C2  1  0.581691  0.476923  0.945012  1
  C  C3  1  0.581691  0.023077  0.445012  1
  C  C4  1  0.418309  0.976923  0.554988  1
  C  C5  1  0.305042  0.482048  0.221981  1
  C  C6  1  0.694958  0.517952  0.778019  1
  C  C7  1  0.694958  0.982048  0.278019  1
  C  C8  1  0.305042  0.017952  0.721981  1
  C  C9  1  0.168186  0.573398  0.269256  1
  C  C10  1  0.831814  0.426602  0.730744  1
  C  C11  1  0.831814  0.073398  0.230744  1
  C  C12  1  0.168186  0.926602  0.769256  1
  C  C13  1  0.199178  0.662070  0.127555  1
  C  C14  1  0.800822  0.337930  0.872445  1
  C  C15  1  0.800822  0.162070  0.372445  1
  C  C16  1  0.199178  0.837930  0.627555  1
  C  C17  1  0.314441  0.369583  0.326706  1
  C  C18  1  0.685559  0.630417  0.673294  1
  C  C19  1  0.685559  0.869583  0.173294  1
  C  C20  1  0.314441  0.130417  0.826706  1
  H  H21  1  0.054104  0.571483  0.386045  1
  H  H22  1  0.945896  0.428517  0.613955  1
  H  H23  1  0.945896  0.071483  0.113955  1
  H  H24  1  0.054104  0.928517  0.886045  1
  H  H25  1  0.126468  0.745409  0.093132  1
  H  H26  1  0.873532  0.254591  0.906868  1
  H  H27  1  0.873532  0.245409  0.406868  1
  H  H28  1  0.126468  0.754591  0.593132  1
  H  H29  1  0.413998  0.306119  0.262433  1
  H  H30  1  0.586002  0.693881  0.737567  1
  H  H31  1  0.586002  0.806119  0.237567  1
  H  H32  1  0.413998  0.193881  0.762433  1
  O  O33  1  0.352301  0.633683  0.992976  1
  O  O34  1  0.647699  0.366317  0.007024  1
  O  O35  1  0.647699  0.133683  0.507024  1
  O  O36  1  0.352301  0.866317  0.492976  1
  O  O37  1  0.208832  0.344503  0.481360  1
  O  O38  1  0.791168  0.655497  0.518640  1
  O  O39  1  0.791168  0.844503  0.018640  1
  O  O40  1  0.208832  0.155497  0.981360  1
 
# Source:                            Grazulis_etal:NucleicAcidsRes.40.D420(2012)                                     
# Class:                             organic_molec_crystal                                                           
# Label:                             COD-7153936                                                                     
# Structure prediction method used:  NA                                                                              
# Number of atoms:                    40
# Number of atom types:                3
# Atom types:                         C  H  O
# Dielectric constant, electronic:   4.12772E+00
# Dielectric constant, ionic:        9.23133E-01
# Dielectric constant, total:        5.05086E+00
# Band gap at the GGA level (eV):    1.52550E+00
# Band gap at the HSE06 level (eV):  2.24320E+00
# Atomization energy (eV/atom):     -6.33172E+00
# Volume of the unit cell (A^3):     3.50825E+02
