# generated using pymatgen
data_H10C7O5
_symmetry_space_group_name_H-M   'P 1'
_cell_length_a   4.71112979
_cell_length_b   5.28048267
_cell_length_c   6.88168079
_cell_angle_alpha   90.66971876
_cell_angle_beta   105.69915170
_cell_angle_gamma   103.62419898
_symmetry_Int_Tables_number   1
_chemical_formula_structural   H10C7O5
_chemical_formula_sum   'H10 C7 O5'
_cell_volume   159.650699664
_cell_formula_units_Z   1
loop_
 _symmetry_equiv_pos_site_id
 _symmetry_equiv_pos_as_xyz
  1  'x, y, z'
loop_
 _atom_site_type_symbol
 _atom_site_label
 _atom_site_symmetry_multiplicity
 _atom_site_fract_x
 _atom_site_fract_y
 _atom_site_fract_z
 _atom_site_occupancy
  C  C1  1  0.777617  0.552201  0.905769  1
  C  C2  1  0.658260  0.774053  0.804869  1
  C  C3  1  0.387820  0.634095  0.620893  1
  C  C4  1  0.456744  0.368998  0.581647  1
  C  C5  1  0.512345  0.370611  0.372893  1
  C  C6  1  0.555640  0.662893  0.328013  1
  C  C7  1  0.249037  0.200938  0.213697  1
  H  H8  1  0.716717  0.306208  0.375801  1
  H  H9  1  0.794857  0.767239  0.382385  1
  H  H10  1  0.468964  0.696365  0.169854  1
  H  H11  1  0.848742  0.103676  0.709201  1
  H  H12  1  0.159955  0.039227  0.937518  1
  H  H13  1  0.017771  0.609646  0.989632  1
  H  H14  1  0.645848  0.452628  0.001732  1
  H  H15  1  0.594258  0.896127  0.906016  1
  H  H16  1  0.170781  0.615863  0.653158  1
  H  H17  1  0.282131  0.199148  0.595955  1
  O  O18  1  0.903022  0.933596  0.733843  1
  O  O19  1  0.981836  0.149788  0.216146  1
  O  O20  1  0.339923  0.121913  0.057647  1
  O  O21  1  0.744747  0.371253  0.733297  1
  O  O22  1  0.373827  0.766266  0.436436  1
 
# Source:                            Grazulis_etal:NucleicAcidsRes.40.D420(2012)                                     
# Class:                             organic_molec_crystal                                                           
# Label:                             COD-7218172                                                                     
# Structure prediction method used:  NA                                                                              
# Number of atoms:                    22
# Number of atom types:                3
# Atom types:                         C  H  O
# Dielectric constant, electronic:   2.74468E+00
# Dielectric constant, ionic:        8.16730E-01
# Dielectric constant, total:        3.56141E+00
# Band gap at the GGA level (eV):    4.54570E+00
# Band gap at the HSE06 level (eV):  6.44990E+00
# Atomization energy (eV/atom):     -5.61779E+00
# Volume of the unit cell (A^3):     1.59651E+02
