# generated using pymatgen
data_H8C5O
_symmetry_space_group_name_H-M   'P 1'
_cell_length_a   8.24643176
_cell_length_b   5.82860800
_cell_length_c   8.43013804
_cell_angle_alpha   90.00000000
_cell_angle_beta   100.65366722
_cell_angle_gamma   90.00000000
_symmetry_Int_Tables_number   1
_chemical_formula_structural   H8C5O
_chemical_formula_sum   'H32 C20 O4'
_cell_volume   398.211897517
_cell_formula_units_Z   4
loop_
 _symmetry_equiv_pos_site_id
 _symmetry_equiv_pos_as_xyz
  1  'x, y, z'
loop_
 _atom_site_type_symbol
 _atom_site_label
 _atom_site_symmetry_multiplicity
 _atom_site_fract_x
 _atom_site_fract_y
 _atom_site_fract_z
 _atom_site_occupancy
  C  C1  1  0.597915  0.954057  0.206960  1
  C  C2  1  0.402085  0.454057  0.793040  1
  C  C3  1  0.624251  0.707499  0.260767  1
  C  C4  1  0.375749  0.207499  0.739233  1
  C  C5  1  0.484234  0.617885  0.339880  1
  C  C6  1  0.515766  0.117885  0.660120  1
  C  C7  1  0.318224  0.656888  0.227086  1
  C  C8  1  0.681776  0.156888  0.772914  1
  C  C9  1  0.167099  0.608972  0.307982  1
  C  C10  1  0.832901  0.108972  0.692018  1
  C  C11  1  0.148365  0.837886  0.392902  1
  C  C12  1  0.851635  0.337886  0.607098  1
  C  C13  1  0.291958  0.908201  0.171930  1
  C  C14  1  0.708042  0.408201  0.828070  1
  C  C15  1  0.445554  0.043852  0.170363  1
  C  C16  1  0.554446  0.543852  0.829637  1
  C  C17  1  0.015585  0.546636  0.181445  1
  C  C18  1  0.984415  0.046636  0.818555  1
  C  C19  1  0.749826  0.089661  0.194832  1
  C  C20  1  0.250174  0.589661  0.805168  1
  H  H21  1  0.040019  0.388762  0.119671  1
  H  H22  1  0.959981  0.888762  0.880329  1
  H  H23  1  0.983830  0.682570  0.091432  1
  H  H24  1  0.016170  0.182570  0.908568  1
  H  H25  1  0.910828  0.516834  0.240294  1
  H  H26  1  0.089172  0.016834  0.759706  1
  H  H27  1  0.718272  0.259479  0.144757  1
  H  H28  1  0.281728  0.759479  0.855243  1
  H  H29  1  0.825600  0.001762  0.119453  1
  H  H30  1  0.174400  0.501762  0.880547  1
  H  H31  1  0.827633  0.107810  0.313955  1
  H  H32  1  0.172367  0.607810  0.686045  1
  H  H33  1  0.200900  0.283332  0.375019  1
  H  H34  1  0.799100  0.783332  0.624981  1
  H  H35  1  0.742035  0.692829  0.343730  1
  H  H36  1  0.257965  0.192829  0.656270  1
  H  H37  1  0.633289  0.602136  0.154435  1
  H  H38  1  0.366711  0.102136  0.845565  1
  H  H39  1  0.487663  0.704612  0.455463  1
  H  H40  1  0.512337  0.204612  0.544537  1
  H  H41  1  0.499742  0.434851  0.365923  1
  H  H42  1  0.500258  0.934851  0.634077  1
  H  H43  1  0.313340  0.547365  0.120882  1
  H  H44  1  0.686660  0.047365  0.879118  1
  H  H45  1  0.024511  0.870447  0.416137  1
  H  H46  1  0.975489  0.370447  0.583863  1
  H  H47  1  0.237034  0.845534  0.506846  1
  H  H48  1  0.762966  0.345534  0.493154  1
  H  H49  1  0.212276  0.917143  0.053232  1
  H  H50  1  0.787724  0.417143  0.946768  1
  H  H51  1  0.428829  0.220118  0.128257  1
  H  H52  1  0.571171  0.720118  0.871743  1
  O  O53  1  0.196539  0.432670  0.430185  1
  O  O54  1  0.803461  0.932670  0.569815  1
  O  O55  1  0.187817  0.014611  0.282815  1
  O  O56  1  0.812183  0.514611  0.717185  1
 
# Source:                            Grazulis_etal:NucleicAcidsRes.40.D420(2012)                                     
# Class:                             organic_molec_crystal                                                           
# Label:                             COD-8101848                                                                     
# Structure prediction method used:  NA                                                                              
# Number of atoms:                    56
# Number of atom types:                3
# Atom types:                         C  H  O
# Dielectric constant, electronic:   2.79238E+00
# Dielectric constant, ionic:        2.61471E-01
# Dielectric constant, total:        3.05385E+00
# Band gap at the GGA level (eV):    4.74090E+00
# Band gap at the HSE06 level (eV):  6.15060E+00
# Atomization energy (eV/atom):     -5.39923E+00
# Volume of the unit cell (A^3):     3.98212E+02
