# generated using pymatgen
data_H12C11O5
_symmetry_space_group_name_H-M   'P 1'
_cell_length_a   5.00526785
_cell_length_b   6.71214148
_cell_length_c   7.09466245
_cell_angle_alpha   88.02081891
_cell_angle_beta   70.19871049
_cell_angle_gamma   74.55504928
_symmetry_Int_Tables_number   1
_chemical_formula_structural   H12C11O5
_chemical_formula_sum   'H12 C11 O5'
_cell_volume   215.753171506
_cell_formula_units_Z   1
loop_
 _symmetry_equiv_pos_site_id
 _symmetry_equiv_pos_as_xyz
  1  'x, y, z'
loop_
 _atom_site_type_symbol
 _atom_site_label
 _atom_site_symmetry_multiplicity
 _atom_site_fract_x
 _atom_site_fract_y
 _atom_site_fract_z
 _atom_site_occupancy
  C  C1  1  0.016114  0.320592  0.900462  1
  C  C2  1  0.106734  0.367864  0.698841  1
  C  C3  1  0.393250  0.275672  0.572030  1
  C  C4  1  0.596133  0.137514  0.642934  1
  C  C5  1  0.502655  0.093719  0.846023  1
  C  C6  1  0.215232  0.182554  0.974237  1
  C  C7  1  0.903651  0.046165  0.495683  1
  C  C8  1  0.106134  0.888704  0.581890  1
  C  C9  1  0.413590  0.811093  0.436338  1
  C  C10  1  0.539421  0.551418  0.953237  1
  C  C11  1  0.230753  0.614071  0.101609  1
  H  H12  1  0.613588  0.690821  0.910289  1
  H  H13  1  0.795656  0.619193  0.406169  1
  H  H14  1  0.842900  0.794739  0.124446  1
  H  H15  1  0.956212  0.470939  0.637893  1
  H  H16  1  0.457794  0.311933  0.415557  1
  H  H17  1  0.654923  0.993883  0.908951  1
  H  H18  1  0.149109  0.148075  0.130159  1
  H  H19  1  0.886743  0.975369  0.365223  1
  H  H20  1  0.004285  0.171770  0.437898  1
  H  H21  1  0.022863  0.754051  0.630651  1
  H  H22  1  0.122878  0.952297  0.715814  1
  H  H23  1  0.529886  0.482571  0.819426  1
  O  O24  1  0.147888  0.545331  0.269562  1
  O  O25  1  0.054262  0.754123  0.026838  1
  O  O26  1  0.590645  0.668403  0.509003  1
  O  O27  1  0.500323  0.872995  0.264164  1
  O  O28  1  0.733379  0.408240  0.037373  1
 
# Source:                            Grazulis_etal:NucleicAcidsRes.40.D420(2012)                                     
# Class:                             organic_molec_crystal                                                           
# Label:                             COD-8102103                                                                     
# Structure prediction method used:  NA                                                                              
# Number of atoms:                    28
# Number of atom types:                3
# Atom types:                         C  H  O
# Dielectric constant, electronic:   3.01856E+00
# Dielectric constant, ionic:        6.15411E-01
# Dielectric constant, total:        3.63397E+00
# Band gap at the GGA level (eV):    3.19960E+00
# Band gap at the HSE06 level (eV):  4.45470E+00
# Atomization energy (eV/atom):     -5.89922E+00
# Volume of the unit cell (A^3):     2.15753E+02
