# generated using pymatgen
data_H13C8NO5
_symmetry_space_group_name_H-M   'P 1'
_cell_length_a   4.40788372
_cell_length_b   10.38713627
_cell_length_c   8.41982878
_cell_angle_alpha   90.00000000
_cell_angle_beta   92.78642946
_cell_angle_gamma   90.00000000
_symmetry_Int_Tables_number   1
_chemical_formula_structural   H13C8NO5
_chemical_formula_sum   'H26 C16 N2 O10'
_cell_volume   385.048503384
_cell_formula_units_Z   2
loop_
 _symmetry_equiv_pos_site_id
 _symmetry_equiv_pos_as_xyz
  1  'x, y, z'
loop_
 _atom_site_type_symbol
 _atom_site_label
 _atom_site_symmetry_multiplicity
 _atom_site_fract_x
 _atom_site_fract_y
 _atom_site_fract_z
 _atom_site_occupancy
  C  C1  1  0.972079  0.622847  0.945812  1
  C  C2  1  0.027921  0.122847  0.054188  1
  C  C3  1  0.809713  0.724011  0.839184  1
  C  C4  1  0.190287  0.224011  0.160816  1
  C  C5  1  0.954763  0.856900  0.865945  1
  C  C6  1  0.045237  0.356900  0.134055  1
  C  C7  1  0.985046  0.890302  0.043194  1
  C  C8  1  0.014954  0.390302  0.956806  1
  C  C9  1  0.129958  0.782096  0.144019  1
  C  C10  1  0.870042  0.282096  0.855981  1
  C  C11  1  0.119364  0.808294  0.321456  1
  C  C12  1  0.880636  0.308294  0.678544  1
  C  C13  1  0.622083  0.610425  0.596018  1
  C  C14  1  0.377917  0.110425  0.403982  1
  C  C15  1  0.709078  0.553886  0.440106  1
  C  C16  1  0.290922  0.053886  0.559894  1
  H  H17  1  0.211210  0.612612  0.918479  1
  H  H18  1  0.788790  0.112612  0.081521  1
  H  H19  1  0.572830  0.728277  0.870236  1
  H  H20  1  0.427170  0.228277  0.129764  1
  H  H21  1  0.182163  0.859366  0.817033  1
  H  H22  1  0.817837  0.359366  0.182967  1
  H  H23  1  0.758593  0.911066  0.085062  1
  H  H24  1  0.241407  0.411066  0.914938  1
  H  H25  1  0.367291  0.765926  0.114619  1
  H  H26  1  0.632709  0.265926  0.885381  1
  H  H27  1  0.201760  0.723253  0.386503  1
  H  H28  1  0.798240  0.223253  0.613497  1
  H  H29  1  0.274420  0.886490  0.350930  1
  H  H30  1  0.725580  0.386490  0.649070  1
  H  H31  1  0.584171  0.464929  0.418156  1
  H  H32  1  0.415829  0.964929  0.581844  1
  H  H33  1  0.952433  0.535907  0.439316  1
  H  H34  1  0.047567  0.035907  0.560684  1
  H  H35  1  0.648139  0.620482  0.343588  1
  H  H36  1  0.351861  0.120482  0.656412  1
  H  H37  1  0.030449  0.694908  0.627347  1
  H  H38  1  0.969551  0.194908  0.372653  1
  H  H39  1  0.848271  0.031681  0.793662  1
  H  H40  1  0.151729  0.531681  0.206338  1
  H  H41  1  0.777640  0.928613  0.366504  1
  H  H42  1  0.222360  0.428613  0.633496  1
  N  N43  1  0.821409  0.688952  0.672120  1
  N  N44  1  0.178591  0.188952  0.327880  1
  O  O45  1  0.821809  0.503856  0.928772  1
  O  O46  1  0.178191  0.003856  0.071228  1
  O  O47  1  0.755546  0.945754  0.781766  1
  O  O48  1  0.244454  0.445754  0.218234  1
  O  O49  1  0.954393  0.664281  0.111029  1
  O  O50  1  0.045607  0.164281  0.888971  1
  O  O51  1  0.816627  0.834976  0.368292  1
  O  O52  1  0.183373  0.334976  0.631708  1
  O  O53  1  0.368885  0.584812  0.653622  1
  O  O54  1  0.631115  0.084812  0.346378  1
 
# Source:                            Grazulis_etal:NucleicAcidsRes.40.D420(2012)                                     
# Class:                             organic_molec_crystal                                                           
# Label:                             COD-1501776                                                                     
# Structure prediction method used:  NA                                                                              
# Number of atoms:                    54
# Number of atom types:                4
# Atom types:                         C  H  N  O
# Dielectric constant, electronic:   2.83794E+00
# Dielectric constant, ionic:        8.85943E-01
# Dielectric constant, total:        3.72388E+00
# Band gap at the GGA level (eV):    4.63280E+00
# Band gap at the HSE06 level (eV):  6.35060E+00
# Atomization energy (eV/atom):     -5.56469E+00
# Volume of the unit cell (A^3):     3.85049E+02
