# generated using pymatgen
data_H8C3N2O
_symmetry_space_group_name_H-M   'P 1'
_cell_length_a   4.44268900
_cell_length_b   4.52803200
_cell_length_c   10.03655000
_cell_angle_alpha   90.00082134
_cell_angle_beta   90.00006887
_cell_angle_gamma   90.00017360
_symmetry_Int_Tables_number   1
_chemical_formula_structural   H8C3N2O
_chemical_formula_sum   'H16 C6 N4 O2'
_cell_volume   201.901642687
_cell_formula_units_Z   2
loop_
 _symmetry_equiv_pos_site_id
 _symmetry_equiv_pos_as_xyz
  1  'x, y, z'
loop_
 _atom_site_type_symbol
 _atom_site_label
 _atom_site_symmetry_multiplicity
 _atom_site_fract_x
 _atom_site_fract_y
 _atom_site_fract_z
 _atom_site_occupancy
  C  C1  1  0.499997  0.286290  0.499999  1
  C  C2  1  0.000006  0.713721  0.999998  1
  C  C3  1  0.098282  0.272035  0.330787  1
  C  C4  1  0.901716  0.272039  0.669213  1
  C  C5  1  0.401715  0.727967  0.830787  1
  C  C6  1  0.598284  0.727964  0.169214  1
  H  H7  1  0.904451  0.127149  0.319397  1
  H  H8  1  0.095546  0.127153  0.680602  1
  H  H9  1  0.595548  0.872852  0.819398  1
  H  H10  1  0.404457  0.872848  0.180603  1
  H  H11  1  0.188550  0.319797  0.231887  1
  H  H12  1  0.811449  0.319806  0.768113  1
  H  H13  1  0.311449  0.680198  0.731886  1
  H  H14  1  0.688554  0.680201  0.268112  1
  H  H15  1  0.023470  0.478155  0.376102  1
  H  H16  1  0.976530  0.478158  0.623900  1
  H  H17  1  0.476533  0.521842  0.876100  1
  H  H18  1  0.523473  0.521844  0.123898  1
  H  H19  1  0.323492  0.904523  0.424960  1
  H  H20  1  0.676498  0.904522  0.575039  1
  H  H21  1  0.176501  0.095476  0.924962  1
  H  H22  1  0.823496  0.095482  0.075039  1
  N  N23  1  0.317430  0.128878  0.417543  1
  N  N24  1  0.682570  0.128885  0.582458  1
  N  N25  1  0.182568  0.871113  0.917544  1
  N  N26  1  0.817431  0.871108  0.082458  1
  O  O27  1  0.500002  0.566697  0.500000  1
  O  O28  1  0.000001  0.433296  0.999999  1
 
# Source:                            Grazulis_etal:NucleicAcidsRes.40.D420(2012)                                     
# Class:                             organic_molec_crystal                                                           
# Label:                             COD-1516355                                                                     
# Structure prediction method used:  NA                                                                              
# Number of atoms:                    28
# Number of atom types:                4
# Atom types:                         C  H  N  O
# Dielectric constant, electronic:   2.67040E+00
# Dielectric constant, ionic:        7.77508E-01
# Dielectric constant, total:        3.44790E+00
# Band gap at the GGA level (eV):    4.89210E+00
# Band gap at the HSE06 level (eV):  6.41310E+00
# Atomization energy (eV/atom):     -5.38593E+00
# Volume of the unit cell (A^3):     2.01902E+02
