# generated using pymatgen
data_H3C2NO
_symmetry_space_group_name_H-M   'P 1'
_cell_length_a   7.48883653
_cell_length_b   3.67972735
_cell_length_c   10.07882520
_cell_angle_alpha   90.00000000
_cell_angle_beta   123.84856301
_cell_angle_gamma   90.00000000
_symmetry_Int_Tables_number   1
_chemical_formula_structural   H3C2NO
_chemical_formula_sum   'H12 C8 N4 O4'
_cell_volume   230.66736962
_cell_formula_units_Z   4
loop_
 _symmetry_equiv_pos_site_id
 _symmetry_equiv_pos_as_xyz
  1  'x, y, z'
loop_
 _atom_site_type_symbol
 _atom_site_label
 _atom_site_symmetry_multiplicity
 _atom_site_fract_x
 _atom_site_fract_y
 _atom_site_fract_z
 _atom_site_occupancy
  C  C1  1  0.135070  0.357012  0.602225  1
  C  C2  1  0.135070  0.642988  0.102225  1
  C  C3  1  0.929038  0.195523  0.477248  1
  C  C4  1  0.929038  0.804477  0.977248  1
  C  C5  1  0.809214  0.045126  0.548817  1
  C  C6  1  0.809214  0.954874  0.048817  1
  C  C7  1  0.458147  0.968001  0.511878  1
  C  C8  1  0.458147  0.031999  0.011878  1
  H  H9  1  0.508815  0.074644  0.628768  1
  H  H10  1  0.508815  0.925356  0.128768  1
  H  H11  1  0.460911  0.672811  0.516740  1
  H  H12  1  0.460911  0.327189  0.016740  1
  H  H13  1  0.819198  0.366089  0.263393  1
  H  H14  1  0.819198  0.633911  0.763393  1
  H  H15  1  0.531461  0.254114  0.362439  1
  H  H16  1  0.531461  0.745886  0.862439  1
  H  H17  1  0.965336  0.958806  0.430391  1
  H  H18  1  0.965336  0.041194  0.930391  1
  H  H19  1  0.295269  0.058096  0.421635  1
  H  H20  1  0.295269  0.941904  0.921635  1
  N  N21  1  0.599466  0.103566  0.464773  1
  N  N22  1  0.599466  0.896434  0.964773  1
  N  N23  1  0.300124  0.490508  0.691394  1
  N  N24  1  0.300124  0.509492  0.191394  1
  O  O25  1  0.802590  0.448200  0.350600  1
  O  O26  1  0.802590  0.551800  0.850600  1
  O  O27  1  0.915261  0.865613  0.676859  1
  O  O28  1  0.915261  0.134387  0.176859  1
 
# Source:                            Grazulis_etal:NucleicAcidsRes.40.D420(2012)                                     
# Class:                             organic_molec_crystal                                                           
# Label:                             COD-2009176                                                                     
# Structure prediction method used:  NA                                                                              
# Number of atoms:                    28
# Number of atom types:                4
# Atom types:                         C  H  N  O
# Dielectric constant, electronic:   2.71805E+00
# Dielectric constant, ionic:        1.26873E+00
# Dielectric constant, total:        3.98677E+00
# Band gap at the GGA level (eV):    4.57660E+00
# Band gap at the HSE06 level (eV):  6.28510E+00
# Atomization energy (eV/atom):     -5.84756E+00
# Volume of the unit cell (A^3):     2.30667E+02
