# generated using pymatgen
data_H6C3NO4
_symmetry_space_group_name_H-M   'P 1'
_cell_length_a   5.36707875
_cell_length_b   6.05074173
_cell_length_c   7.02673742
_cell_angle_alpha   79.82813603
_cell_angle_beta   82.99733125
_cell_angle_gamma   66.05753835
_symmetry_Int_Tables_number   1
_chemical_formula_structural   H6C3NO4
_chemical_formula_sum   'H12 C6 N2 O8'
_cell_volume   204.958340081
_cell_formula_units_Z   2
loop_
 _symmetry_equiv_pos_site_id
 _symmetry_equiv_pos_as_xyz
  1  'x, y, z'
loop_
 _atom_site_type_symbol
 _atom_site_label
 _atom_site_symmetry_multiplicity
 _atom_site_fract_x
 _atom_site_fract_y
 _atom_site_fract_z
 _atom_site_occupancy
  C  C1  1  0.879050  0.753549  0.422620  1
  C  C2  1  0.120950  0.246451  0.577380  1
  C  C3  1  0.766646  0.578970  0.379539  1
  C  C4  1  0.233354  0.421030  0.620461  1
  C  C5  1  0.105423  0.024319  0.048726  1
  C  C6  1  0.894577  0.975681  0.951274  1
  H  H7  1  0.150679  0.803304  0.564843  1
  H  H8  1  0.849321  0.196696  0.435157  1
  H  H9  1  0.528919  0.239527  0.224989  1
  H  H10  1  0.471081  0.760473  0.775011  1
  H  H11  1  0.376000  0.531293  0.147284  1
  H  H12  1  0.624000  0.468707  0.852716  1
  H  H13  1  0.551156  0.650117  0.425942  1
  H  H14  1  0.448844  0.349883  0.574058  1
  H  H15  1  0.777243  0.585128  0.223330  1
  H  H16  1  0.222757  0.414872  0.776670  1
  H  H17  1  0.176662  0.298840  0.109249  1
  H  H18  1  0.823338  0.701160  0.890751  1
  N  N19  1  0.094492  0.672399  0.529264  1
  N  N20  1  0.905508  0.327601  0.470736  1
  O  O21  1  0.032807  0.260563  0.049308  1
  O  O22  1  0.967193  0.739437  0.950692  1
  O  O23  1  0.314053  0.860710  0.115758  1
  O  O24  1  0.685947  0.139290  0.884242  1
  O  O25  1  0.354219  0.379237  0.204947  1
  O  O26  1  0.645781  0.620763  0.795053  1
  O  O27  1  0.765873  0.977050  0.353218  1
  O  O28  1  0.234127  0.022950  0.646782  1
 
# Source:                            Grazulis_etal:NucleicAcidsRes.40.D420(2012)                                     
# Class:                             organic_molec_crystal                                                           
# Label:                             COD-2014741                                                                     
# Structure prediction method used:  NA                                                                              
# Number of atoms:                    28
# Number of atom types:                4
# Atom types:                         C  H  N  O
# Dielectric constant, electronic:   2.86424E+00
# Dielectric constant, ionic:        1.65223E+00
# Dielectric constant, total:        4.51647E+00
# Band gap at the GGA level (eV):    3.30350E+00
# Band gap at the HSE06 level (eV):  4.96100E+00
# Atomization energy (eV/atom):     -5.69998E+00
# Volume of the unit cell (A^3):     2.04958E+02
