# generated using pymatgen
data_H19C10NO6
_symmetry_space_group_name_H-M   'P 1'
_cell_length_a   4.86096760
_cell_length_b   5.35326930
_cell_length_c   9.97522230
_cell_angle_alpha   77.49615627
_cell_angle_beta   89.22307640
_cell_angle_gamma   76.54532939
_symmetry_Int_Tables_number   1
_chemical_formula_structural   H19C10NO6
_chemical_formula_sum   'H19 C10 N1 O6'
_cell_volume   246.2785525
_cell_formula_units_Z   1
loop_
 _symmetry_equiv_pos_site_id
 _symmetry_equiv_pos_as_xyz
  1  'x, y, z'
loop_
 _atom_site_type_symbol
 _atom_site_label
 _atom_site_symmetry_multiplicity
 _atom_site_fract_x
 _atom_site_fract_y
 _atom_site_fract_z
 _atom_site_occupancy
  C  C1  1  0.164741  0.536232  0.587178  1
  C  C2  1  0.288496  0.641418  0.450108  1
  C  C3  1  0.083231  0.873211  0.355480  1
  C  C4  1  0.222152  0.949079  0.217977  1
  C  C5  1  0.322361  0.712557  0.151998  1
  C  C6  1  0.507407  0.486678  0.254139  1
  C  C7  1  0.741016  0.972437  0.779832  1
  C  C8  1  0.497826  0.113222  0.677243  1
  C  C9  1  0.319402  0.406352  0.830489  1
  C  C10  1  0.570957  0.271260  0.928010  1
  H  H11  1  0.047438  0.707694  0.622484  1
  H  H12  1  0.019596  0.414377  0.572332  1
  H  H13  1  0.604017  0.616295  0.568828  1
  H  H14  1  0.141852  0.193550  0.409171  1
  H  H15  1  0.042397  0.322484  0.124793  1
  H  H16  1  0.949693  0.788616  0.046514  1
  H  H17  1  0.891884  0.810461  0.337663  1
  H  H18  1  0.408508  0.020570  0.236974  1
  H  H19  1  0.443884  0.769055  0.062203  1
  H  H20  1  0.568492  0.306361  0.217193  1
  H  H21  1  0.702499  0.539498  0.276418  1
  H  H22  1  0.790051  0.761783  0.783569  1
  H  H23  1  0.928933  0.049441  0.751559  1
  H  H24  1  0.569318  0.106962  0.573754  1
  H  H25  1  0.324425  0.010467  0.695763  1
  H  H26  1  0.142577  0.313770  0.862626  1
  H  H27  1  0.256822  0.612722  0.837760  1
  H  H28  1  0.743549  0.371813  0.905352  1
  H  H29  1  0.513449  0.266830  0.033356  1
  N  N30  1  0.397060  0.391332  0.688387  1
  O  O31  1  0.995907  0.090611  0.422197  1
  O  O32  1  0.026081  0.143679  0.120590  1
  O  O33  1  0.076079  0.634604  0.106921  1
  O  O34  1  0.671965  0.996440  0.919423  1
  O  O35  1  0.362260  0.422236  0.380825  1
  O  O36  1  0.534276  0.726605  0.477178  1
 
# Source:                            Grazulis_etal:NucleicAcidsRes.40.D420(2012)                                     
# Class:                             organic_molec_crystal                                                           
# Label:                             COD-2016158                                                                     
# Structure prediction method used:  NA                                                                              
# Number of atoms:                    36
# Number of atom types:                4
# Atom types:                         C  H  N  O
# Dielectric constant, electronic:   2.77238E+00
# Dielectric constant, ionic:        6.40466E-01
# Dielectric constant, total:        3.41285E+00
# Band gap at the GGA level (eV):    5.29000E+00
# Band gap at the HSE06 level (eV):  6.89690E+00
# Atomization energy (eV/atom):     -5.37215E+00
# Volume of the unit cell (A^3):     2.46279E+02
