# generated using pymatgen
data_H8C5NO
_symmetry_space_group_name_H-M   'P 1'
_cell_length_a   5.14283522
_cell_length_b   6.69968506
_cell_length_c   6.85626268
_cell_angle_alpha   79.09431054
_cell_angle_beta   71.20595919
_cell_angle_gamma   86.22358567
_symmetry_Int_Tables_number   1
_chemical_formula_structural   H8C5NO
_chemical_formula_sum   'H16 C10 N2 O2'
_cell_volume   219.5976961
_cell_formula_units_Z   2
loop_
 _symmetry_equiv_pos_site_id
 _symmetry_equiv_pos_as_xyz
  1  'x, y, z'
loop_
 _atom_site_type_symbol
 _atom_site_label
 _atom_site_symmetry_multiplicity
 _atom_site_fract_x
 _atom_site_fract_y
 _atom_site_fract_z
 _atom_site_occupancy
  C  C1  1  0.860010  0.819088  0.024347  1
  C  C2  1  0.139990  0.180912  0.975653  1
  C  C3  1  0.723891  0.978262  0.124482  1
  C  C4  1  0.276109  0.021738  0.875518  1
  C  C5  1  0.863865  0.157172  0.099955  1
  C  C6  1  0.136135  0.842828  0.900045  1
  C  C7  1  0.078919  0.711912  0.435740  1
  C  C8  1  0.921081  0.288088  0.564260  1
  C  C9  1  0.783071  0.647202  0.563325  1
  C  C10  1  0.216929  0.352798  0.436675  1
  H  H11  1  0.510428  0.962570  0.220670  1
  H  H12  1  0.489572  0.037430  0.779330  1
  H  H13  1  0.759399  0.283640  0.170227  1
  H  H14  1  0.240601  0.716360  0.829773  1
  H  H15  1  0.081206  0.858110  0.332809  1
  H  H16  1  0.918794  0.141890  0.667191  1
  H  H17  1  0.191692  0.729261  0.542194  1
  H  H18  1  0.808308  0.270739  0.457806  1
  H  H19  1  0.686737  0.754002  0.668248  1
  H  H20  1  0.313263  0.245998  0.331752  1
  H  H21  1  0.663009  0.644825  0.457808  1
  H  H22  1  0.336991  0.355175  0.542192  1
  H  H23  1  0.141245  0.550087  0.194420  1
  H  H24  1  0.858755  0.449913  0.805580  1
  H  H25  1  0.541190  0.624076  0.150226  1
  H  H26  1  0.458810  0.375924  0.849774  1
  N  N27  1  0.227742  0.559365  0.307400  1
  N  N28  1  0.772258  0.440635  0.692600  1
  O  O29  1  0.737818  0.635981  0.046465  1
  O  O30  1  0.262182  0.364019  0.953535  1
 
# Source:                            Grazulis_etal:NucleicAcidsRes.40.D420(2012)                                     
# Class:                             organic_molec_crystal                                                           
# Label:                             COD-2100229                                                                     
# Structure prediction method used:  NA                                                                              
# Number of atoms:                    30
# Number of atom types:                4
# Atom types:                         C  H  N  O
# Dielectric constant, electronic:   2.98651E+00
# Dielectric constant, ionic:        6.47341E-01
# Dielectric constant, total:        3.63385E+00
# Band gap at the GGA level (eV):    2.99540E+00
# Band gap at the HSE06 level (eV):  4.09820E+00
# Atomization energy (eV/atom):     -5.56171E+00
# Volume of the unit cell (A^3):     2.19598E+02
