# generated using pymatgen
data_H2C2NO
_symmetry_space_group_name_H-M   'P 1'
_cell_length_a   3.51063280
_cell_length_b   10.96569604
_cell_length_c   5.23036941
_cell_angle_alpha   90.00000000
_cell_angle_beta   92.05620521
_cell_angle_gamma   90.00000000
_symmetry_Int_Tables_number   1
_chemical_formula_structural   H2C2NO
_chemical_formula_sum   'H8 C8 N4 O4'
_cell_volume   201.221436593
_cell_formula_units_Z   4
loop_
 _symmetry_equiv_pos_site_id
 _symmetry_equiv_pos_as_xyz
  1  'x, y, z'
loop_
 _atom_site_type_symbol
 _atom_site_label
 _atom_site_symmetry_multiplicity
 _atom_site_fract_x
 _atom_site_fract_y
 _atom_site_fract_z
 _atom_site_occupancy
  C  C1  1  0.932630  0.620161  0.447682  1
  C  C2  1  0.067370  0.379839  0.552318  1
  C  C3  1  0.067370  0.120161  0.052318  1
  C  C4  1  0.932630  0.879839  0.947682  1
  C  C5  1  0.867241  0.449541  0.718739  1
  C  C6  1  0.132759  0.550459  0.281261  1
  C  C7  1  0.132759  0.949541  0.781261  1
  C  C8  1  0.867241  0.050459  0.218739  1
  H  H9  1  0.860551  0.714830  0.411931  1
  H  H10  1  0.139449  0.285170  0.588069  1
  H  H11  1  0.139449  0.214830  0.088069  1
  H  H12  1  0.860551  0.785170  0.911931  1
  H  H13  1  0.747620  0.414146  0.891271  1
  H  H14  1  0.252380  0.585854  0.108729  1
  H  H15  1  0.252380  0.914146  0.608729  1
  H  H16  1  0.747620  0.085854  0.391271  1
  N  N17  1  0.795932  0.569860  0.665672  1
  N  N18  1  0.204068  0.430140  0.334328  1
  N  N19  1  0.204068  0.069860  0.834328  1
  N  N20  1  0.795932  0.930140  0.165672  1
  O  O21  1  0.592695  0.636892  0.821374  1
  O  O22  1  0.407305  0.363108  0.178626  1
  O  O23  1  0.407305  0.136892  0.678626  1
  O  O24  1  0.592695  0.863108  0.321374  1
 
# Source:                            Grazulis_etal:NucleicAcidsRes.40.D420(2012)                                     
# Class:                             organic_molec_crystal                                                           
# Label:                             COD-2201315                                                                     
# Structure prediction method used:  NA                                                                              
# Number of atoms:                    24
# Number of atom types:                4
# Atom types:                         C  H  N  O
# Dielectric constant, electronic:   3.60400E+00
# Dielectric constant, ionic:        9.95903E-01
# Dielectric constant, total:        4.59990E+00
# Band gap at the GGA level (eV):    1.71450E+00
# Band gap at the HSE06 level (eV):  2.69090E+00
# Atomization energy (eV/atom):     -5.94369E+00
# Volume of the unit cell (A^3):     2.01221E+02
