# generated using pymatgen
data_H7C3NO5
_symmetry_space_group_name_H-M   'P 1'
_cell_length_a   4.41502734
_cell_length_b   7.53222875
_cell_length_c   7.75180362
_cell_angle_alpha   64.74325500
_cell_angle_beta   89.73379644
_cell_angle_gamma   88.78791926
_symmetry_Int_Tables_number   1
_chemical_formula_structural   H7C3NO5
_chemical_formula_sum   'H14 C6 N2 O10'
_cell_volume   233.088205171
_cell_formula_units_Z   2
loop_
 _symmetry_equiv_pos_site_id
 _symmetry_equiv_pos_as_xyz
  1  'x, y, z'
loop_
 _atom_site_type_symbol
 _atom_site_label
 _atom_site_symmetry_multiplicity
 _atom_site_fract_x
 _atom_site_fract_y
 _atom_site_fract_z
 _atom_site_occupancy
  C  C1  1  0.514141  0.843421  0.930252  1
  C  C2  1  0.485859  0.156579  0.069748  1
  C  C3  1  0.417328  0.055375  0.799652  1
  C  C4  1  0.582672  0.944625  0.200348  1
  C  C5  1  0.560959  0.199571  0.862921  1
  C  C6  1  0.439041  0.800429  0.137079  1
  H  H7  1  0.391571  0.744087  0.888020  1
  H  H8  1  0.608429  0.255913  0.111980  1
  H  H9  1  0.886656  0.803709  0.802780  1
  H  H10  1  0.113344  0.196291  0.197220  1
  H  H11  1  0.171760  0.065941  0.805293  1
  H  H12  1  0.828240  0.934059  0.194707  1
  H  H13  1  0.327509  0.139449  0.524457  1
  H  H14  1  0.672491  0.860551  0.475543  1
  H  H15  1  0.804862  0.208724  0.841899  1
  H  H16  1  0.195138  0.791276  0.158101  1
  H  H17  1  0.174870  0.854982  0.514100  1
  H  H18  1  0.825130  0.145018  0.485900  1
  H  H19  1  0.021245  0.655665  0.621576  1
  H  H20  1  0.978755  0.344335  0.378424  1
  N  N21  1  0.438952  0.405644  0.745181  1
  N  N22  1  0.561048  0.594356  0.254819  1
  O  O23  1  0.509089  0.097084  0.609732  1
  O  O24  1  0.490911  0.902916  0.390268  1
  O  O25  1  0.210081  0.429320  0.641267  1
  O  O26  1  0.789919  0.570680  0.358733  1
  O  O27  1  0.565468  0.540918  0.766097  1
  O  O28  1  0.434532  0.459082  0.233903  1
  O  O29  1  0.995775  0.794777  0.594754  1
  O  O30  1  0.004225  0.205223  0.405246  1
  O  O31  1  0.835556  0.812112  0.923921  1
  O  O32  1  0.164444  0.187888  0.076079  1
 
# Source:                            Grazulis_etal:NucleicAcidsRes.40.D420(2012)                                     
# Class:                             organic_molec_crystal                                                           
# Label:                             COD-2202478                                                                     
# Structure prediction method used:  NA                                                                              
# Number of atoms:                    32
# Number of atom types:                4
# Atom types:                         C  H  N  O
# Dielectric constant, electronic:   2.82326E+00
# Dielectric constant, ionic:        1.27954E+00
# Dielectric constant, total:        4.10281E+00
# Band gap at the GGA level (eV):    2.13500E+00
# Band gap at the HSE06 level (eV):  3.96170E+00
# Atomization energy (eV/atom):     -5.37367E+00
# Volume of the unit cell (A^3):     2.33088E+02
