# generated using pymatgen
data_H4C5(NO)2
_symmetry_space_group_name_H-M   'P 1'
_cell_length_a   3.36984729
_cell_length_b   10.93564560
_cell_length_c   6.05213547
_cell_angle_alpha   90.00000000
_cell_angle_beta   97.65281995
_cell_angle_gamma   90.00000000
_symmetry_Int_Tables_number   1
_chemical_formula_structural   H4C5(NO)2
_chemical_formula_sum   'H8 C10 N4 O4'
_cell_volume   221.0435172
_cell_formula_units_Z   2
loop_
 _symmetry_equiv_pos_site_id
 _symmetry_equiv_pos_as_xyz
  1  'x, y, z'
loop_
 _atom_site_type_symbol
 _atom_site_label
 _atom_site_symmetry_multiplicity
 _atom_site_fract_x
 _atom_site_fract_y
 _atom_site_fract_z
 _atom_site_occupancy
  C  C1  1  0.923178  0.264359  0.951208  1
  C  C2  1  0.076822  0.764359  0.048792  1
  C  C3  1  0.857725  0.383285  0.025058  1
  C  C4  1  0.142275  0.883285  0.974942  1
  C  C5  1  0.673174  0.303704  0.348402  1
  C  C6  1  0.326826  0.803704  0.651598  1
  C  C7  1  0.730754  0.186007  0.271056  1
  C  C8  1  0.269246  0.686007  0.728944  1
  C  C9  1  0.645842  0.076717  0.405870  1
  C  C10  1  0.354158  0.576717  0.594130  1
  H  H11  1  0.034288  0.249308  0.793657  1
  H  H12  1  0.965712  0.749308  0.206343  1
  H  H13  1  0.916276  0.462670  0.929243  1
  H  H14  1  0.083724  0.962670  0.070757  1
  H  H15  1  0.570551  0.321229  0.506762  1
  H  H16  1  0.429449  0.821229  0.493238  1
  H  H17  1  0.402716  0.028960  0.672228  1
  H  H18  1  0.597284  0.528960  0.327772  1
  N  N19  1  0.731289  0.402007  0.223376  1
  N  N20  1  0.268711  0.902007  0.776624  1
  N  N21  1  0.858490  0.165585  0.072023  1
  N  N22  1  0.141510  0.665585  0.927977  1
  O  O23  1  0.718625  0.971312  0.351577  1
  O  O24  1  0.281375  0.471312  0.648423  1
  O  O25  1  0.478065  0.106957  0.587787  1
  O  O26  1  0.521935  0.606957  0.412213  1
 
# Source:                            Grazulis_etal:NucleicAcidsRes.40.D420(2012)                                     
# Class:                             organic_molec_crystal                                                           
# Label:                             COD-2207725                                                                     
# Structure prediction method used:  NA                                                                              
# Number of atoms:                    26
# Number of atom types:                4
# Atom types:                         C  H  N  O
# Dielectric constant, electronic:   3.19944E+00
# Dielectric constant, ionic:        1.00102E+00
# Dielectric constant, total:        4.20046E+00
# Band gap at the GGA level (eV):    2.70670E+00
# Band gap at the HSE06 level (eV):  4.27490E+00
# Atomization energy (eV/atom):     -6.37965E+00
# Volume of the unit cell (A^3):     2.21044E+02
