# generated using pymatgen
data_HC2NO2
_symmetry_space_group_name_H-M   'P 1'
_cell_length_a   4.91774986
_cell_length_b   8.39401403
_cell_length_c   6.12279673
_cell_angle_alpha   90.00000000
_cell_angle_beta   124.52442173
_cell_angle_gamma   90.00000000
_symmetry_Int_Tables_number   1
_chemical_formula_structural   HC2NO2
_chemical_formula_sum   'H4 C8 N4 O8'
_cell_volume   208.234363128
_cell_formula_units_Z   4
loop_
 _symmetry_equiv_pos_site_id
 _symmetry_equiv_pos_as_xyz
  1  'x, y, z'
loop_
 _atom_site_type_symbol
 _atom_site_label
 _atom_site_symmetry_multiplicity
 _atom_site_fract_x
 _atom_site_fract_y
 _atom_site_fract_z
 _atom_site_occupancy
  C  C1  1  0.394365  0.636008  0.573572  1
  C  C2  1  0.605635  0.363992  0.426428  1
  C  C3  1  0.605635  0.136008  0.926428  1
  C  C4  1  0.394365  0.863992  0.073572  1
  C  C5  1  0.850213  0.473940  0.653435  1
  C  C6  1  0.149787  0.526060  0.346565  1
  C  C7  1  0.149787  0.973940  0.846565  1
  C  C8  1  0.850213  0.026060  0.153435  1
  H  H9  1  0.889274  0.679137  0.853719  1
  H  H10  1  0.110726  0.320863  0.146281  1
  H  H11  1  0.110726  0.179137  0.646281  1
  H  H12  1  0.889274  0.820863  0.353719  1
  N  N13  1  0.722852  0.603024  0.704328  1
  N  N14  1  0.277148  0.396976  0.295672  1
  N  N15  1  0.277148  0.103024  0.795672  1
  N  N16  1  0.722852  0.896976  0.204328  1
  O  O17  1  0.147029  0.444601  0.782497  1
  O  O18  1  0.852971  0.555399  0.217503  1
  O  O19  1  0.852971  0.944601  0.717503  1
  O  O20  1  0.147029  0.055399  0.282497  1
  O  O21  1  0.289018  0.750798  0.629516  1
  O  O22  1  0.710982  0.249202  0.370484  1
  O  O23  1  0.710982  0.250798  0.870484  1
  O  O24  1  0.289018  0.749202  0.129516  1
 
# Source:                            Grazulis_etal:NucleicAcidsRes.40.D420(2012)                                     
# Class:                             organic_molec_crystal                                                           
# Label:                             COD-2228286                                                                     
# Structure prediction method used:  NA                                                                              
# Number of atoms:                    24
# Number of atom types:                4
# Atom types:                         C  H  N  O
# Dielectric constant, electronic:   3.49732E+00
# Dielectric constant, ionic:        1.46706E+00
# Dielectric constant, total:        4.96438E+00
# Band gap at the GGA level (eV):    1.96690E+00
# Band gap at the HSE06 level (eV):  3.61980E+00
# Atomization energy (eV/atom):     -6.72648E+00
# Volume of the unit cell (A^3):     2.08234E+02
