# generated using pymatgen
data_H6C5NO2
_symmetry_space_group_name_H-M   'P 1'
_cell_length_a   4.78704485
_cell_length_b   6.02505838
_cell_length_c   7.67545702
_cell_angle_alpha   87.36770768
_cell_angle_beta   79.71646529
_cell_angle_gamma   88.81451935
_symmetry_Int_Tables_number   1
_chemical_formula_structural   H6C5NO2
_chemical_formula_sum   'H12 C10 N2 O4'
_cell_volume   217.573730689
_cell_formula_units_Z   2
loop_
 _symmetry_equiv_pos_site_id
 _symmetry_equiv_pos_as_xyz
  1  'x, y, z'
loop_
 _atom_site_type_symbol
 _atom_site_label
 _atom_site_symmetry_multiplicity
 _atom_site_fract_x
 _atom_site_fract_y
 _atom_site_fract_z
 _atom_site_occupancy
  C  C1  1  0.527738  0.696580  0.122097  1
  C  C2  1  0.472262  0.303420  0.877903  1
  C  C3  1  0.330651  0.419457  0.343383  1
  C  C4  1  0.669349  0.580543  0.656617  1
  C  C5  1  0.421924  0.202047  0.421477  1
  C  C6  1  0.578076  0.797953  0.578523  1
  C  C7  1  0.675163  0.093137  0.351443  1
  C  C8  1  0.324837  0.906863  0.648557  1
  C  C9  1  0.247557  0.106843  0.570505  1
  C  C10  1  0.752443  0.893157  0.429495  1
  H  H11  1  0.157788  0.399500  0.270332  1
  H  H12  1  0.842212  0.600500  0.729668  1
  H  H13  1  0.263329  0.539032  0.445971  1
  H  H14  1  0.736671  0.460968  0.554029  1
  H  H15  1  0.811465  0.164271  0.235870  1
  H  H16  1  0.188535  0.835729  0.764130  1
  H  H17  1  0.051694  0.188407  0.628066  1
  H  H18  1  0.948306  0.811593  0.371934  1
  H  H19  1  0.955527  0.722823  0.045882  1
  H  H20  1  0.044473  0.277177  0.954118  1
  H  H21  1  0.749268  0.924007  0.955021  1
  H  H22  1  0.250732  0.075993  0.044979  1
  N  N23  1  0.763965  0.769828  0.014924  1
  N  N24  1  0.236035  0.230172  0.985076  1
  O  O25  1  0.286560  0.782953  0.130529  1
  O  O26  1  0.713440  0.217047  0.869471  1
  O  O27  1  0.576959  0.510260  0.220385  1
  O  O28  1  0.423041  0.489740  0.779615  1
 
# Source:                            Grazulis_etal:NucleicAcidsRes.40.D420(2012)                                     
# Class:                             organic_molec_crystal                                                           
# Label:                             COD-2234344                                                                     
# Structure prediction method used:  NA                                                                              
# Number of atoms:                    28
# Number of atom types:                4
# Atom types:                         C  H  N  O
# Dielectric constant, electronic:   3.03755E+00
# Dielectric constant, ionic:        8.25354E-01
# Dielectric constant, total:        3.86290E+00
# Band gap at the GGA level (eV):    3.85230E+00
# Band gap at the HSE06 level (eV):  4.91920E+00
# Atomization energy (eV/atom):     -5.95002E+00
# Volume of the unit cell (A^3):     2.17574E+02
