# generated using pymatgen
data_H4C5(NO)2
_symmetry_space_group_name_H-M   'P 1'
_cell_length_a   5.74636545
_cell_length_b   5.59036420
_cell_length_c   7.45772956
_cell_angle_alpha   90.00000000
_cell_angle_beta   111.10944865
_cell_angle_gamma   90.00000000
_symmetry_Int_Tables_number   1
_chemical_formula_structural   H4C5(NO)2
_chemical_formula_sum   'H8 C10 N4 O4'
_cell_volume   223.497333935
_cell_formula_units_Z   2
loop_
 _symmetry_equiv_pos_site_id
 _symmetry_equiv_pos_as_xyz
  1  'x, y, z'
loop_
 _atom_site_type_symbol
 _atom_site_label
 _atom_site_symmetry_multiplicity
 _atom_site_fract_x
 _atom_site_fract_y
 _atom_site_fract_z
 _atom_site_occupancy
  C  C1  1  0.171543  0.250000  0.981136  1
  C  C2  1  0.828457  0.750000  0.018864  1
  C  C3  1  0.206814  0.250000  0.190325  1
  C  C4  1  0.793186  0.750000  0.809675  1
  C  C5  1  0.380446  0.250000  0.927643  1
  C  C6  1  0.619554  0.750000  0.072357  1
  C  C7  1  0.335734  0.250000  0.731493  1
  C  C8  1  0.664266  0.750000  0.268507  1
  C  C9  1  0.913352  0.250000  0.666731  1
  C  C10  1  0.086648  0.750000  0.333269  1
  H  H11  1  0.568132  0.250000  0.032557  1
  H  H12  1  0.431868  0.750000  0.967443  1
  H  H13  1  0.484326  0.250000  0.676106  1
  H  H14  1  0.515674  0.750000  0.323894  1
  H  H15  1  0.727884  0.250000  0.558180  1
  H  H16  1  0.272116  0.750000  0.441820  1
  H  H17  1  0.040290  0.250000  0.375945  1
  H  H18  1  0.959710  0.750000  0.624055  1
  N  N19  1  0.102293  0.250000  0.601117  1
  N  N20  1  0.897707  0.750000  0.398883  1
  N  N21  1  0.936846  0.250000  0.851393  1
  N  N22  1  0.063154  0.750000  0.148607  1
  O  O23  1  0.418191  0.250000  0.315718  1
  O  O24  1  0.581809  0.750000  0.684282  1
  O  O25  1  0.995624  0.250000  0.226511  1
  O  O26  1  0.004376  0.750000  0.773489  1
 
# Source:                            Grazulis_etal:NucleicAcidsRes.40.D420(2012)                                     
# Class:                             organic_molec_crystal                                                           
# Label:                             COD-2237770                                                                     
# Structure prediction method used:  NA                                                                              
# Number of atoms:                    26
# Number of atom types:                4
# Atom types:                         C  H  N  O
# Dielectric constant, electronic:   3.19781E+00
# Dielectric constant, ionic:        1.00611E+00
# Dielectric constant, total:        4.20392E+00
# Band gap at the GGA level (eV):    2.67170E+00
# Band gap at the HSE06 level (eV):  4.24660E+00
# Atomization energy (eV/atom):     -6.39392E+00
# Volume of the unit cell (A^3):     2.23497E+02
