# generated using pymatgen
data_H17C11NO3
_symmetry_space_group_name_H-M   'P 1'
_cell_length_a   5.47066659
_cell_length_b   6.27009670
_cell_length_c   8.13399710
_cell_angle_alpha   102.88663221
_cell_angle_beta   102.23410943
_cell_angle_gamma   112.87392557
_symmetry_Int_Tables_number   1
_chemical_formula_structural   H17C11NO3
_chemical_formula_sum   'H17 C11 N1 O3'
_cell_volume   236.33984502
_cell_formula_units_Z   1
loop_
 _symmetry_equiv_pos_site_id
 _symmetry_equiv_pos_as_xyz
  1  'x, y, z'
loop_
 _atom_site_type_symbol
 _atom_site_label
 _atom_site_symmetry_multiplicity
 _atom_site_fract_x
 _atom_site_fract_y
 _atom_site_fract_z
 _atom_site_occupancy
  C  C1  1  0.313227  0.127234  0.941580  1
  C  C2  1  0.446387  0.865971  0.102692  1
  C  C3  1  0.280263  0.731010  0.767831  1
  C  C4  1  0.240050  0.858222  0.937826  1
  C  C5  1  0.192143  0.000247  0.617605  1
  C  C6  1  0.976779  0.986545  0.458344  1
  C  C7  1  0.492891  0.134499  0.615821  1
  C  C8  1  0.935482  0.716036  0.930376  1
  C  C9  1  0.250683  0.265917  0.087538  1
  C  C10  1  0.080848  0.437714  0.259351  1
  C  C11  1  0.338312  0.487902  0.363036  1
  H  H12  1  0.538807  0.224085  0.963034  1
  H  H13  1  0.391904  0.916694  0.221973  1
  H  H14  1  0.660948  0.997578  0.125529  1
  H  H15  1  0.438653  0.685307  0.083028  1
  H  H16  1  0.502898  0.814328  0.780265  1
  H  H17  1  0.204902  0.534402  0.745917  1
  H  H18  1  0.008403  0.911069  0.334503  1
  H  H19  1  0.996526  0.169310  0.469790  1
  H  H20  1  0.766431  0.868666  0.453025  1
  H  H21  1  0.654285  0.137755  0.722759  1
  H  H22  1  0.542229  0.323988  0.626172  1
  H  H23  1  0.503872  0.044547  0.488496  1
  H  H24  1  0.789244  0.707487  0.812108  1
  H  H25  1  0.898697  0.802804  0.048289  1
  H  H26  1  0.893130  0.529470  0.925122  1
  H  H27  1  0.928842  0.488101  0.297182  1
  H  H28  1  0.463431  0.583709  0.501448  1
  N  N29  1  0.026673  0.294286  0.084205  1
  O  O30  1  0.455776  0.379136  0.255825  1
  O  O31  1  0.151290  0.128741  0.775150  1
  O  O32  1  0.115993  0.747943  0.609380  1
 
# Source:                            Grazulis_etal:NucleicAcidsRes.40.D420(2012)                                     
# Class:                             organic_molec_crystal                                                           
# Label:                             COD-4027001                                                                     
# Structure prediction method used:  NA                                                                              
# Number of atoms:                    32
# Number of atom types:                4
# Atom types:                         C  H  N  O
# Dielectric constant, electronic:   2.73969E+00
# Dielectric constant, ionic:        2.67331E-01
# Dielectric constant, total:        3.00702E+00
# Band gap at the GGA level (eV):    4.26260E+00
# Band gap at the HSE06 level (eV):  5.67310E+00
# Atomization energy (eV/atom):     -5.50348E+00
# Volume of the unit cell (A^3):     2.36340E+02
