# generated using pymatgen
data_H3CN2O
_symmetry_space_group_name_H-M   'P 1'
_cell_length_a   3.40986211
_cell_length_b   11.36249000
_cell_length_c   5.17286342
_cell_angle_alpha   90.00000000
_cell_angle_beta   92.08007197
_cell_angle_gamma   90.00000000
_symmetry_Int_Tables_number   1
_chemical_formula_structural   H3CN2O
_chemical_formula_sum   'H12 C4 N8 O4'
_cell_volume   200.288070221
_cell_formula_units_Z   4
loop_
 _symmetry_equiv_pos_site_id
 _symmetry_equiv_pos_as_xyz
  1  'x, y, z'
loop_
 _atom_site_type_symbol
 _atom_site_label
 _atom_site_symmetry_multiplicity
 _atom_site_fract_x
 _atom_site_fract_y
 _atom_site_fract_z
 _atom_site_occupancy
  C  C1  1  0.453719  0.941471  0.565345  1
  C  C2  1  0.546281  0.058529  0.434655  1
  C  C3  1  0.546281  0.441471  0.934655  1
  C  C4  1  0.453719  0.558529  0.065345  1
  H  H5  1  0.167804  0.039047  0.837601  1
  H  H6  1  0.832196  0.960953  0.162399  1
  H  H7  1  0.832196  0.539047  0.662399  1
  H  H8  1  0.167804  0.460953  0.337601  1
  H  H9  1  0.342429  0.815392  0.009305  1
  H  H10  1  0.657571  0.184608  0.990695  1
  H  H11  1  0.657571  0.315392  0.490695  1
  H  H12  1  0.342429  0.684608  0.509305  1
  H  H13  1  0.961960  0.803366  0.808568  1
  H  H14  1  0.038040  0.196634  0.191432  1
  H  H15  1  0.038040  0.303366  0.691432  1
  H  H16  1  0.961960  0.696634  0.308568  1
  N  N17  1  0.248602  0.956049  0.778479  1
  N  N18  1  0.751398  0.043951  0.221521  1
  N  N19  1  0.751398  0.456049  0.721521  1
  N  N20  1  0.248602  0.543951  0.278479  1
  N  N21  1  0.108492  0.860979  0.930029  1
  N  N22  1  0.891508  0.139021  0.069971  1
  N  N23  1  0.891508  0.360979  0.569971  1
  N  N24  1  0.108492  0.639021  0.430029  1
  O  O25  1  0.566268  0.845400  0.476723  1
  O  O26  1  0.433732  0.154600  0.523277  1
  O  O27  1  0.433732  0.345400  0.023277  1
  O  O28  1  0.566268  0.654600  0.976723  1
 
# Source:                            Grazulis_etal:NucleicAcidsRes.40.D420(2012)                                     
# Class:                             organic_molec_crystal                                                           
# Label:                             COD-4110682                                                                     
# Structure prediction method used:  NA                                                                              
# Number of atoms:                    28
# Number of atom types:                4
# Atom types:                         C  H  N  O
# Dielectric constant, electronic:   3.09831E+00
# Dielectric constant, ionic:        1.16016E+00
# Dielectric constant, total:        4.25847E+00
# Band gap at the GGA level (eV):    2.80270E+00
# Band gap at the HSE06 level (eV):  4.38080E+00
# Atomization energy (eV/atom):     -5.69478E+00
# Volume of the unit cell (A^3):     2.00288E+02
