# generated using pymatgen
data_H3CN2O
_symmetry_space_group_name_H-M   'P 1'
_cell_length_a   3.29312790
_cell_length_b   14.01313580
_cell_length_c   5.04233192
_cell_angle_alpha   90.00000000
_cell_angle_beta   120.38165628
_cell_angle_gamma   90.00000000
_symmetry_Int_Tables_number   1
_chemical_formula_structural   H3CN2O
_chemical_formula_sum   'H12 C4 N8 O4'
_cell_volume   200.73490299
_cell_formula_units_Z   4
loop_
 _symmetry_equiv_pos_site_id
 _symmetry_equiv_pos_as_xyz
  1  'x, y, z'
loop_
 _atom_site_type_symbol
 _atom_site_label
 _atom_site_symmetry_multiplicity
 _atom_site_fract_x
 _atom_site_fract_y
 _atom_site_fract_z
 _atom_site_occupancy
  C  C1  1  0.906836  0.950049  0.491065  1
  C  C2  1  0.093164  0.049951  0.508935  1
  C  C3  1  0.093164  0.450049  0.008935  1
  C  C4  1  0.906836  0.549951  0.991065  1
  H  H5  1  0.846309  0.934149  0.065492  1
  H  H6  1  0.153691  0.065851  0.934508  1
  H  H7  1  0.153691  0.434149  0.434508  1
  H  H8  1  0.846309  0.565851  0.565492  1
  H  H9  1  0.302846  0.806430  0.021352  1
  H  H10  1  0.697154  0.193570  0.978648  1
  H  H11  1  0.697154  0.306430  0.478648  1
  H  H12  1  0.302846  0.693570  0.521352  1
  H  H13  1  0.694589  0.781529  0.385289  1
  H  H14  1  0.305411  0.218471  0.614711  1
  H  H15  1  0.305411  0.281529  0.114711  1
  H  H16  1  0.694589  0.718471  0.885289  1
  N  N17  1  0.791422  0.904974  0.230180  1
  N  N18  1  0.208578  0.095026  0.769820  1
  N  N19  1  0.208578  0.404974  0.269820  1
  N  N20  1  0.791422  0.595026  0.730180  1
  N  N21  1  0.654415  0.807841  0.182952  1
  N  N22  1  0.345585  0.192159  0.817048  1
  N  N23  1  0.345585  0.307841  0.317048  1
  N  N24  1  0.654415  0.692159  0.682952  1
  O  O25  1  0.861673  0.914183  0.704186  1
  O  O26  1  0.138327  0.085817  0.295814  1
  O  O27  1  0.138327  0.414183  0.795814  1
  O  O28  1  0.861673  0.585817  0.204186  1
 
# Source:                            Grazulis_etal:NucleicAcidsRes.40.D420(2012)                                     
# Class:                             organic_molec_crystal                                                           
# Label:                             COD-4110684                                                                     
# Structure prediction method used:  NA                                                                              
# Number of atoms:                    28
# Number of atom types:                4
# Atom types:                         C  H  N  O
# Dielectric constant, electronic:   3.27334E+00
# Dielectric constant, ionic:        1.94972E+00
# Dielectric constant, total:        5.22306E+00
# Band gap at the GGA level (eV):    2.68040E+00
# Band gap at the HSE06 level (eV):  4.05300E+00
# Atomization energy (eV/atom):     -5.69899E+00
# Volume of the unit cell (A^3):     2.00735E+02
