# generated using pymatgen
data_H3CN2O
_symmetry_space_group_name_H-M   'P 1'
_cell_length_a   5.27318646
_cell_length_b   3.36579300
_cell_length_c   11.91833600
_cell_angle_alpha   90.00000000
_cell_angle_beta   105.34687096
_cell_angle_gamma   90.00000000
_symmetry_Int_Tables_number   1
_chemical_formula_structural   H3CN2O
_chemical_formula_sum   'H12 C4 N8 O4'
_cell_volume   203.989067598
_cell_formula_units_Z   4
loop_
 _symmetry_equiv_pos_site_id
 _symmetry_equiv_pos_as_xyz
  1  'x, y, z'
loop_
 _atom_site_type_symbol
 _atom_site_label
 _atom_site_symmetry_multiplicity
 _atom_site_fract_x
 _atom_site_fract_y
 _atom_site_fract_z
 _atom_site_occupancy
  C  C1  1  0.885591  0.903573  0.516848  1
  C  C2  1  0.114409  0.096427  0.483152  1
  C  C3  1  0.114409  0.403573  0.983152  1
  C  C4  1  0.885591  0.596427  0.016848  1
  H  H5  1  0.059400  0.070472  0.686823  1
  H  H6  1  0.940600  0.929528  0.313177  1
  H  H7  1  0.940600  0.570472  0.813177  1
  H  H8  1  0.059400  0.429528  0.186823  1
  H  H9  1  0.588655  0.988837  0.696076  1
  H  H10  1  0.411345  0.011163  0.303924  1
  H  H11  1  0.411345  0.488837  0.803924  1
  H  H12  1  0.588655  0.511163  0.196076  1
  H  H13  1  0.586131  0.601847  0.613859  1
  H  H14  1  0.413869  0.398153  0.386141  1
  H  H15  1  0.413869  0.101847  0.886141  1
  H  H16  1  0.586131  0.898153  0.113859  1
  N  N17  1  0.894079  0.953834  0.628870  1
  N  N18  1  0.105921  0.046166  0.371130  1
  N  N19  1  0.105921  0.453834  0.871130  1
  N  N20  1  0.894079  0.546166  0.128870  1
  N  N21  1  0.706611  0.768213  0.678760  1
  N  N22  1  0.293389  0.231787  0.321240  1
  N  N23  1  0.293389  0.268213  0.821240  1
  N  N24  1  0.706611  0.731787  0.178760  1
  O  O25  1  0.712368  0.712502  0.444696  1
  O  O26  1  0.287632  0.287498  0.555304  1
  O  O27  1  0.287632  0.212502  0.055304  1
  O  O28  1  0.712368  0.787498  0.944696  1
 
# Source:                            Grazulis_etal:NucleicAcidsRes.40.D420(2012)                                     
# Class:                             organic_molec_crystal                                                           
# Label:                             COD-4110685                                                                     
# Structure prediction method used:  NA                                                                              
# Number of atoms:                    28
# Number of atom types:                4
# Atom types:                         C  H  N  O
# Dielectric constant, electronic:   3.14457E+00
# Dielectric constant, ionic:        1.45622E+00
# Dielectric constant, total:        4.60079E+00
# Band gap at the GGA level (eV):    2.65630E+00
# Band gap at the HSE06 level (eV):  4.04970E+00
# Atomization energy (eV/atom):     -5.69868E+00
# Volume of the unit cell (A^3):     2.03989E+02
