# generated using pymatgen
data_H5C5N3O
_symmetry_space_group_name_H-M   'P 1'
_cell_length_a   7.10735655
_cell_length_b   3.34366900
_cell_length_c   10.32164013
_cell_angle_alpha   90.00000000
_cell_angle_beta   105.86085711
_cell_angle_gamma   90.00000000
_symmetry_Int_Tables_number   1
_chemical_formula_structural   H5C5N3O
_chemical_formula_sum   'H10 C10 N6 O2'
_cell_volume   235.951516157
_cell_formula_units_Z   2
loop_
 _symmetry_equiv_pos_site_id
 _symmetry_equiv_pos_as_xyz
  1  'x, y, z'
loop_
 _atom_site_type_symbol
 _atom_site_label
 _atom_site_symmetry_multiplicity
 _atom_site_fract_x
 _atom_site_fract_y
 _atom_site_fract_z
 _atom_site_occupancy
  C  C1  1  0.256002  0.335866  0.322561  1
  C  C2  1  0.256002  0.664134  0.822561  1
  C  C3  1  0.873711  0.158432  0.247197  1
  C  C4  1  0.873711  0.841568  0.747197  1
  C  C5  1  0.465553  0.467429  0.361804  1
  C  C6  1  0.465553  0.532571  0.861804  1
  C  C7  1  0.144207  0.387234  0.189650  1
  C  C8  1  0.144207  0.612766  0.689650  1
  C  C9  1  0.986900  0.097309  0.379162  1
  C  C10  1  0.986900  0.902691  0.879162  1
  H  H11  1  0.719556  0.091166  0.219196  1
  H  H12  1  0.719556  0.908834  0.719196  1
  H  H13  1  0.208796  0.503902  0.113976  1
  H  H14  1  0.208796  0.496098  0.613976  1
  H  H15  1  0.922282  0.976597  0.454386  1
  H  H16  1  0.922282  0.023403  0.954386  1
  H  H17  1  0.499409  0.311489  0.560188  1
  H  H18  1  0.499409  0.688511  0.060188  1
  H  H19  1  0.707126  0.510839  0.523783  1
  H  H20  1  0.707126  0.489161  0.023783  1
  N  N21  1  0.566374  0.409352  0.490742  1
  N  N22  1  0.566374  0.590648  0.990742  1
  N  N23  1  0.178342  0.185514  0.417777  1
  N  N24  1  0.178342  0.814486  0.917777  1
  N  N25  1  0.951937  0.303367  0.152127  1
  N  N26  1  0.951937  0.696633  0.652127  1
  O  O27  1  0.536004  0.632793  0.276252  1
  O  O28  1  0.536004  0.367207  0.776252  1
 
# Source:                            Grazulis_etal:NucleicAcidsRes.40.D420(2012)                                     
# Class:                             organic_molec_crystal                                                           
# Label:                             COD-4501764                                                                     
# Structure prediction method used:  NA                                                                              
# Number of atoms:                    28
# Number of atom types:                4
# Atom types:                         C  H  N  O
# Dielectric constant, electronic:   3.22066E+00
# Dielectric constant, ionic:        1.15103E+00
# Dielectric constant, total:        4.37169E+00
# Band gap at the GGA level (eV):    2.46890E+00
# Band gap at the HSE06 level (eV):  4.03190E+00
# Atomization energy (eV/atom):     -6.29149E+00
# Volume of the unit cell (A^3):     2.35952E+02
