# generated using pymatgen
data_H5C2NO2
_symmetry_space_group_name_H-M   'P 1'
_cell_length_a   5.02278912
_cell_length_b   11.05349000
_cell_length_c   5.57528614
_cell_angle_alpha   90.00000000
_cell_angle_beta   118.35595321
_cell_angle_gamma   90.00000000
_symmetry_Int_Tables_number   1
_chemical_formula_structural   H5C2NO2
_chemical_formula_sum   'H20 C8 N4 O8'
_cell_volume   272.396227313
_cell_formula_units_Z   4
loop_
 _symmetry_equiv_pos_site_id
 _symmetry_equiv_pos_as_xyz
  1  'x, y, z'
loop_
 _atom_site_type_symbol
 _atom_site_label
 _atom_site_symmetry_multiplicity
 _atom_site_fract_x
 _atom_site_fract_y
 _atom_site_fract_z
 _atom_site_occupancy
  C  C1  1  0.003441  0.129623  0.444622  1
  C  C2  1  0.996559  0.870377  0.555378  1
  C  C3  1  0.996559  0.629623  0.055378  1
  C  C4  1  0.003441  0.370377  0.944622  1
  C  C5  1  0.260611  0.149920  0.731752  1
  C  C6  1  0.739389  0.850080  0.268248  1
  C  C7  1  0.739389  0.649920  0.768248  1
  C  C8  1  0.260611  0.350080  0.231752  1
  H  H9  1  0.309309  0.245983  0.760555  1
  H  H10  1  0.690691  0.754017  0.239445  1
  H  H11  1  0.690691  0.745983  0.739445  1
  H  H12  1  0.309309  0.254017  0.260555  1
  H  H13  1  0.197696  0.118196  0.882744  1
  H  H14  1  0.802304  0.881804  0.117256  1
  H  H15  1  0.802304  0.618196  0.617256  1
  H  H16  1  0.197696  0.381804  0.382744  1
  H  H17  1  0.723076  0.097649  0.968374  1
  H  H18  1  0.276924  0.902351  0.031626  1
  H  H19  1  0.276924  0.597649  0.531626  1
  H  H20  1  0.723076  0.402351  0.468374  1
  H  H21  1  0.616249  0.122019  0.639403  1
  H  H22  1  0.383751  0.877981  0.360597  1
  H  H23  1  0.383751  0.622019  0.860597  1
  H  H24  1  0.616249  0.377981  0.139403  1
  H  H25  1  0.505461  0.995864  0.732257  1
  H  H26  1  0.494539  0.004136  0.267743  1
  H  H27  1  0.494539  0.495864  0.767743  1
  H  H28  1  0.505461  0.504136  0.232257  1
  N  N29  1  0.541987  0.087281  0.771520  1
  N  N30  1  0.458013  0.912719  0.228480  1
  N  N31  1  0.458013  0.587281  0.728480  1
  N  N32  1  0.541987  0.412719  0.271520  1
  O  O33  1  0.736377  0.157261  0.398283  1
  O  O34  1  0.263623  0.842739  0.601717  1
  O  O35  1  0.263623  0.657261  0.101717  1
  O  O36  1  0.736377  0.342739  0.898283  1
  O  O37  1  0.068382  0.087800  0.266054  1
  O  O38  1  0.931618  0.912200  0.733946  1
  O  O39  1  0.931618  0.587800  0.233946  1
  O  O40  1  0.068382  0.412200  0.766054  1
 
# Source:                            Grazulis_etal:NucleicAcidsRes.40.D420(2012)                                     
# Class:                             organic_molec_crystal                                                           
# Label:                             COD-4504969                                                                     
# Structure prediction method used:  NA                                                                              
# Number of atoms:                    40
# Number of atom types:                4
# Atom types:                         C  H  N  O
# Dielectric constant, electronic:   2.78903E+00
# Dielectric constant, ionic:        2.04574E+00
# Dielectric constant, total:        4.83477E+00
# Band gap at the GGA level (eV):    4.77060E+00
# Band gap at the HSE06 level (eV):  6.71350E+00
# Atomization energy (eV/atom):     -5.54552E+00
# Volume of the unit cell (A^3):     2.72396E+02
