# generated using pymatgen
data_H7C4NO4
_symmetry_space_group_name_H-M   'P 1'
_cell_length_a   5.12006465
_cell_length_b   6.13203623
_cell_length_c   7.54950648
_cell_angle_alpha   90.00000000
_cell_angle_beta   103.11669538
_cell_angle_gamma   90.00000000
_symmetry_Int_Tables_number   1
_chemical_formula_structural   H7C4NO4
_chemical_formula_sum   'H14 C8 N2 O8'
_cell_volume   230.843415456
_cell_formula_units_Z   2
loop_
 _symmetry_equiv_pos_site_id
 _symmetry_equiv_pos_as_xyz
  1  'x, y, z'
loop_
 _atom_site_type_symbol
 _atom_site_label
 _atom_site_symmetry_multiplicity
 _atom_site_fract_x
 _atom_site_fract_y
 _atom_site_fract_z
 _atom_site_occupancy
  C  C1  1  0.567079  0.952707  0.467270  1
  C  C2  1  0.432921  0.452707  0.532730  1
  C  C3  1  0.637422  0.929121  0.281691  1
  C  C4  1  0.362578  0.429121  0.718309  1
  C  C5  1  0.758950  0.138172  0.221719  1
  C  C6  1  0.241050  0.638172  0.778281  1
  C  C7  1  0.852430  0.092229  0.049906  1
  C  C8  1  0.147570  0.592229  0.950094  1
  H  H9  1  0.710475  0.999645  0.791164  1
  H  H10  1  0.289525  0.499645  0.208836  1
  H  H11  1  0.602453  0.261517  0.192557  1
  H  H12  1  0.397547  0.761517  0.807443  1
  H  H13  1  0.927700  0.196760  0.324740  1
  H  H14  1  0.072300  0.696760  0.675260  1
  H  H15  1  0.028364  0.802737  0.357584  1
  H  H16  1  0.971636  0.302737  0.642416  1
  H  H17  1  0.789857  0.618832  0.372719  1
  H  H18  1  0.210143  0.118832  0.627281  1
  H  H19  1  0.843636  0.684392  0.168321  1
  H  H20  1  0.156364  0.184392  0.831679  1
  H  H21  1  0.459378  0.884796  0.181065  1
  H  H22  1  0.540622  0.384796  0.818935  1
  N  N23  1  0.838368  0.747192  0.295297  1
  N  N24  1  0.161632  0.247192  0.704703  1
  O  O25  1  0.764428  0.961632  0.604927  1
  O  O26  1  0.235572  0.461632  0.395073  1
  O  O27  1  0.321104  0.959537  0.471782  1
  O  O28  1  0.678896  0.459537  0.528218  1
  O  O29  1  0.091384  0.095028  0.040676  1
  O  O30  1  0.908616  0.595028  0.959324  1
  O  O31  1  0.650828  0.039604  0.910636  1
  O  O32  1  0.349172  0.539604  0.089364  1
 
# Source:                            Grazulis_etal:NucleicAcidsRes.40.D420(2012)                                     
# Class:                             organic_molec_crystal                                                           
# Label:                             COD-5000004                                                                     
# Structure prediction method used:  NA                                                                              
# Number of atoms:                    32
# Number of atom types:                4
# Atom types:                         C  H  N  O
# Dielectric constant, electronic:   2.83691E+00
# Dielectric constant, ionic:        1.78316E+00
# Dielectric constant, total:        4.62008E+00
# Band gap at the GGA level (eV):    4.18500E+00
# Band gap at the HSE06 level (eV):  5.99210E+00
# Atomization energy (eV/atom):     -5.75116E+00
# Volume of the unit cell (A^3):     2.30843E+02
