# generated using pymatgen
data_H4C4NO2
_symmetry_space_group_name_H-M   'P 1'
_cell_length_a   4.89395663
_cell_length_b   5.93539543
_cell_length_c   6.36572658
_cell_angle_alpha   85.14371357
_cell_angle_beta   87.06446030
_cell_angle_gamma   83.98951997
_symmetry_Int_Tables_number   1
_chemical_formula_structural   H4C4NO2
_chemical_formula_sum   'H8 C8 N2 O4'
_cell_volume   183.064847281
_cell_formula_units_Z   2
loop_
 _symmetry_equiv_pos_site_id
 _symmetry_equiv_pos_as_xyz
  1  'x, y, z'
loop_
 _atom_site_type_symbol
 _atom_site_label
 _atom_site_symmetry_multiplicity
 _atom_site_fract_x
 _atom_site_fract_y
 _atom_site_fract_z
 _atom_site_occupancy
  C  C1  1  0.884688  0.802855  0.010093  1
  C  C2  1  0.115312  0.197145  0.989907  1
  C  C3  1  0.127544  0.831791  0.891615  1
  C  C4  1  0.872456  0.168209  0.108385  1
  C  C5  1  0.278196  0.668298  0.363503  1
  C  C6  1  0.721804  0.331702  0.636497  1
  C  C7  1  0.024358  0.608768  0.480684  1
  C  C8  1  0.975642  0.391232  0.519316  1
  H  H9  1  0.786397  0.647285  0.016824  1
  H  H10  1  0.213603  0.352715  0.983176  1
  H  H11  1  0.236221  0.696777  0.808139  1
  H  H12  1  0.763779  0.303223  0.191861  1
  H  H13  1  0.496825  0.921315  0.284497  1
  H  H14  1  0.503175  0.078685  0.715503  1
  H  H15  1  0.881318  0.746348  0.533747  1
  H  H16  1  0.118682  0.253652  0.466253  1
  N  N17  1  0.758834  0.971082  0.119541  1
  N  N18  1  0.241166  0.028918  0.880459  1
  O  O19  1  0.428330  0.533660  0.259409  1
  O  O20  1  0.571670  0.466340  0.740591  1
  O  O21  1  0.325739  0.885222  0.378971  1
  O  O22  1  0.674261  0.114778  0.621029  1
 
# Source:                            Grazulis_etal:NucleicAcidsRes.40.D420(2012)                                     
# Class:                             organic_molec_crystal                                                           
# Label:                             COD-7208188                                                                     
# Structure prediction method used:  NA                                                                              
# Number of atoms:                    22
# Number of atom types:                4
# Atom types:                         C  H  N  O
# Dielectric constant, electronic:   3.14651E+00
# Dielectric constant, ionic:        1.09105E+00
# Dielectric constant, total:        4.23756E+00
# Band gap at the GGA level (eV):    2.63780E+00
# Band gap at the HSE06 level (eV):  3.93370E+00
# Atomization energy (eV/atom):     -6.12073E+00
# Volume of the unit cell (A^3):     1.83065E+02
