# generated using pymatgen
data_H17C7NO5
_symmetry_space_group_name_H-M   'P 1'
_cell_length_a   4.58919181
_cell_length_b   4.77641936
_cell_length_c   9.24042452
_cell_angle_alpha   99.05985100
_cell_angle_beta   95.18941846
_cell_angle_gamma   89.17728097
_symmetry_Int_Tables_number   1
_chemical_formula_structural   H17C7NO5
_chemical_formula_sum   'H17 C7 N1 O5'
_cell_volume   199.202430236
_cell_formula_units_Z   1
loop_
 _symmetry_equiv_pos_site_id
 _symmetry_equiv_pos_as_xyz
  1  'x, y, z'
loop_
 _atom_site_type_symbol
 _atom_site_label
 _atom_site_symmetry_multiplicity
 _atom_site_fract_x
 _atom_site_fract_y
 _atom_site_fract_z
 _atom_site_occupancy
  C  C1  1  0.152772  0.488398  0.421941  1
  C  C2  1  0.292215  0.497629  0.279880  1
  C  C3  1  0.072681  0.527058  0.148709  1
  C  C4  1  0.220999  0.533039  0.007094  1
  C  C5  1  0.002889  0.526695  0.871111  1
  C  C6  1  0.850134  0.239268  0.825251  1
  C  C7  1  0.547623  0.981899  0.614615  1
  H  H8  1  0.025144  0.678257  0.453950  1
  H  H9  1  0.445533  0.676567  0.298674  1
  H  H10  1  0.917844  0.349842  0.131466  1
  H  H11  1  0.367000  0.350675  0.989269  1
  H  H12  1  0.838638  0.692824  0.891190  1
  H  H13  1  0.016226  0.074026  0.802060  1
  H  H14  1  0.724148  0.180527  0.911185  1
  H  H15  1  0.399012  0.892120  0.680118  1
  H  H16  1  0.729518  0.833558  0.593391  1
  H  H17  1  0.430355  0.010103  0.509885  1
  H  H18  1  0.026498  0.084731  0.344271  1
  H  H19  1  0.632283  0.241567  0.307910  1
  H  H20  1  0.731716  0.788165  0.125070  1
  H  H21  1  0.326229  0.938566  0.092314  1
  H  H22  1  0.330273  0.469505  0.736915  1
  H  H23  1  0.770629  0.349704  0.624460  1
  H  H24  1  0.324629  0.471949  0.509149  1
  N  N25  1  0.649494  0.260875  0.692800  1
  O  O26  1  0.954258  0.248233  0.410398  1
  O  O27  1  0.449346  0.235270  0.240674  1
  O  O28  1  0.919738  0.791934  0.188552  1
  O  O29  1  0.407606  0.783749  0.024192  1
  O  O30  1  0.148370  0.590066  0.748709  1
 
# Source:                            Grazulis_etal:NucleicAcidsRes.40.D420(2012)                                     
# Class:                             organic_molec_crystal                                                           
# Label:                             COD-4511822                                                                     
# Structure prediction method used:  NA                                                                              
# Number of atoms:                    30
# Number of atom types:                4
# Atom types:                         C  H  N  O
# Dielectric constant, electronic:   2.71944E+00
# Dielectric constant, ionic:        9.78752E-01
# Dielectric constant, total:        3.69819E+00
# Band gap at the GGA level (eV):    4.92020E+00
# Band gap at the HSE06 level (eV):  6.61000E+00
# Atomization energy (eV/atom):     -5.21737E+00
# Volume of the unit cell (A^3):     1.99202E+02
