# generated using pymatgen
data_H6CN4O3
_symmetry_space_group_name_H-M   'P 1'
_cell_length_a   4.75765101
_cell_length_b   4.71989296
_cell_length_c   9.65815041
_cell_angle_alpha   90.00000000
_cell_angle_beta   108.07852645
_cell_angle_gamma   90.00000000
_symmetry_Int_Tables_number   1
_chemical_formula_structural   H6CN4O3
_chemical_formula_sum   'H12 C2 N8 O6'
_cell_volume   206.172706566
_cell_formula_units_Z   2
loop_
 _symmetry_equiv_pos_site_id
 _symmetry_equiv_pos_as_xyz
  1  'x, y, z'
loop_
 _atom_site_type_symbol
 _atom_site_label
 _atom_site_symmetry_multiplicity
 _atom_site_fract_x
 _atom_site_fract_y
 _atom_site_fract_z
 _atom_site_occupancy
  C  C1  1  0.784755  0.111384  0.050363  1
  C  C2  1  0.784755  0.888616  0.550363  1
  H  H3  1  0.523785  0.448801  0.050609  1
  H  H4  1  0.523785  0.551199  0.550609  1
  H  H5  1  0.755251  0.486445  0.942404  1
  H  H6  1  0.755251  0.513555  0.442404  1
  H  H7  1  0.566612  0.063301  0.202306  1
  H  H8  1  0.566612  0.936699  0.702306  1
  H  H9  1  0.809311  0.794110  0.196330  1
  H  H10  1  0.809311  0.205890  0.696330  1
  H  H11  1  0.107855  0.829128  0.051425  1
  H  H12  1  0.107855  0.170872  0.551425  1
  H  H13  1  0.067369  0.105100  0.927467  1
  H  H14  1  0.067369  0.894900  0.427467  1
  N  N15  1  0.993642  0.001302  0.000955  1
  N  N16  1  0.993642  0.998698  0.500955  1
  N  N17  1  0.222591  0.405866  0.273656  1
  N  N18  1  0.222591  0.594134  0.773656  1
  N  N19  1  0.657924  0.360066  0.998956  1
  N  N20  1  0.657924  0.639934  0.498956  1
  N  N21  1  0.693999  0.968268  0.148133  1
  N  N22  1  0.693999  0.031732  0.648133  1
  O  O23  1  0.021388  0.511845  0.320731  1
  O  O24  1  0.021388  0.488155  0.820731  1
  O  O25  1  0.301719  0.539143  0.176539  1
  O  O26  1  0.301719  0.460857  0.676539  1
  O  O27  1  0.343597  0.171618  0.323626  1
  O  O28  1  0.343597  0.828382  0.823626  1
 
# Source:                            Grazulis_etal:NucleicAcidsRes.40.D420(2012)                                     
# Class:                             organic_molec_crystal                                                           
# Label:                             COD-7105956                                                                     
# Structure prediction method used:  NA                                                                              
# Number of atoms:                    28
# Number of atom types:                4
# Atom types:                         C  H  N  O
# Dielectric constant, electronic:   2.86742E+00
# Dielectric constant, ionic:        2.52323E+00
# Dielectric constant, total:        5.39066E+00
# Band gap at the GGA level (eV):    2.83580E+00
# Band gap at the HSE06 level (eV):  4.44490E+00
# Atomization energy (eV/atom):     -5.48213E+00
# Volume of the unit cell (A^3):     2.06173E+02
