# generated using pymatgen
data_H5C2NO2
_symmetry_space_group_name_H-M   'P 1'
_cell_length_a   6.73361825
_cell_length_b   6.72986353
_cell_length_c   5.40873107
_cell_angle_alpha   89.99619111
_cell_angle_beta   90.01069093
_cell_angle_gamma   120.02293892
_symmetry_Int_Tables_number   1
_chemical_formula_structural   H5C2NO2
_chemical_formula_sum   'H15 C6 N3 O6'
_cell_volume   212.217076757
_cell_formula_units_Z   3
loop_
 _symmetry_equiv_pos_site_id
 _symmetry_equiv_pos_as_xyz
  1  'x, y, z'
loop_
 _atom_site_type_symbol
 _atom_site_label
 _atom_site_symmetry_multiplicity
 _atom_site_fract_x
 _atom_site_fract_y
 _atom_site_fract_z
 _atom_site_occupancy
  C  C1  1  0.601046  0.603949  0.825443  1
  C  C2  1  0.396175  0.997339  0.158867  1
  C  C3  1  0.002785  0.398824  0.492157  1
  C  C4  1  0.561959  0.587226  0.545829  1
  C  C5  1  0.412777  0.974885  0.879256  1
  C  C6  1  0.025300  0.438016  0.212567  1
  H  H7  1  0.759931  0.745028  0.225237  1
  H  H8  1  0.254828  0.014801  0.558654  1
  H  H9  1  0.985274  0.240034  0.891942  1
  H  H10  1  0.901281  0.708879  0.465255  1
  H  H11  1  0.290762  0.192333  0.798606  1
  H  H12  1  0.807624  0.098475  0.131780  1
  H  H13  1  0.834070  0.917763  0.474901  1
  H  H14  1  0.082261  0.915985  0.808317  1
  H  H15  1  0.083712  0.165965  0.141693  1
  H  H16  1  0.503697  0.414943  0.474829  1
  H  H17  1  0.584896  0.089104  0.808172  1
  H  H18  1  0.911368  0.496205  0.141428  1
  H  H19  1  0.432972  0.634325  0.502750  1
  H  H20  1  0.365863  0.798718  0.836285  1
  H  H21  1  0.201439  0.567182  0.169674  1
  N  N22  1  0.777257  0.750963  0.417552  1
  N  N23  1  0.248916  0.026190  0.750970  1
  N  N24  1  0.973770  0.222669  0.084246  1
  O  O25  1  0.784231  0.775192  0.907862  1
  O  O26  1  0.224873  0.008952  0.241294  1
  O  O27  1  0.991340  0.215858  0.574546  1
  O  O28  1  0.444479  0.452450  0.960435  1
  O  O29  1  0.547820  0.992640  0.293835  1
  O  O30  1  0.007290  0.555109  0.627179  1
 
# Source:                            Grazulis_etal:NucleicAcidsRes.40.D420(2012)                                     
# Class:                             organic_molec_crystal                                                           
# Label:                             COD-7112516                                                                     
# Structure prediction method used:  NA                                                                              
# Number of atoms:                    30
# Number of atom types:                4
# Atom types:                         C  H  N  O
# Dielectric constant, electronic:   2.73048E+00
# Dielectric constant, ionic:        2.05335E+00
# Dielectric constant, total:        4.78382E+00
# Band gap at the GGA level (eV):    4.75450E+00
# Band gap at the HSE06 level (eV):  6.70620E+00
# Atomization energy (eV/atom):     -5.54734E+00
# Volume of the unit cell (A^3):     2.12217E+02
