# generated using pymatgen
data_H5C2NO2
_symmetry_space_group_name_H-M   'P 1'
_cell_length_a   6.73943210
_cell_length_b   6.73753982
_cell_length_c   5.41118612
_cell_angle_alpha   89.99600043
_cell_angle_beta   90.01656886
_cell_angle_gamma   120.01700989
_symmetry_Int_Tables_number   1
_chemical_formula_structural   H5C2NO2
_chemical_formula_sum   'H15 C6 N3 O6'
_cell_volume   212.751811026
_cell_formula_units_Z   3
loop_
 _symmetry_equiv_pos_site_id
 _symmetry_equiv_pos_as_xyz
  1  'x, y, z'
loop_
 _atom_site_type_symbol
 _atom_site_label
 _atom_site_symmetry_multiplicity
 _atom_site_fract_x
 _atom_site_fract_y
 _atom_site_fract_z
 _atom_site_occupancy
  C  C1  1  0.399069  0.396110  0.601834  1
  C  C2  1  0.603797  0.002769  0.268413  1
  C  C3  1  0.997107  0.601033  0.935126  1
  C  C4  1  0.437905  0.412931  0.881492  1
  C  C5  1  0.587065  0.024839  0.548056  1
  C  C6  1  0.974985  0.562122  0.214757  1
  H  H7  1  0.166526  0.082431  0.952052  1
  H  H8  1  0.917581  0.084358  0.618666  1
  H  H9  1  0.915859  0.833429  0.285298  1
  H  H10  1  0.098760  0.290716  0.962160  1
  H  H11  1  0.709579  0.808128  0.628858  1
  H  H12  1  0.191919  0.901398  0.295603  1
  H  H13  1  0.240351  0.254769  0.201935  1
  H  H14  1  0.745384  0.985698  0.868549  1
  H  H15  1  0.014303  0.759683  0.535244  1
  H  H16  1  0.567164  0.366462  0.924851  1
  H  H17  1  0.633383  0.200600  0.591337  1
  H  H18  1  0.799216  0.432749  0.257957  1
  H  H19  1  0.495367  0.584925  0.952308  1
  H  H20  1  0.415186  0.910127  0.618915  1
  H  H21  1  0.089484  0.504735  0.285691  1
  N  N22  1  0.222878  0.248877  0.009653  1
  N  N23  1  0.751236  0.974092  0.676275  1
  N  N24  1  0.025947  0.777169  0.342975  1
  O  O25  1  0.555402  0.547740  0.467104  1
  O  O26  1  0.452044  0.007189  0.133643  1
  O  O27  1  0.992841  0.444928  0.800351  1
  O  O28  1  0.216335  0.224812  0.519326  1
  O  O29  1  0.775158  0.991597  0.185955  1
  O  O30  1  0.008168  0.783585  0.852667  1
 
# Source:                            Grazulis_etal:NucleicAcidsRes.40.D420(2012)                                     
# Class:                             organic_molec_crystal                                                           
# Label:                             COD-7112517                                                                     
# Structure prediction method used:  NA                                                                              
# Number of atoms:                    30
# Number of atom types:                4
# Atom types:                         C  H  N  O
# Dielectric constant, electronic:   2.72675E+00
# Dielectric constant, ionic:        2.03241E+00
# Dielectric constant, total:        4.75916E+00
# Band gap at the GGA level (eV):    4.75650E+00
# Band gap at the HSE06 level (eV):  6.70670E+00
# Atomization energy (eV/atom):     -5.54808E+00
# Volume of the unit cell (A^3):     2.12752E+02
