# generated using pymatgen
data_H3C2NO
_symmetry_space_group_name_H-M   'P 1'
_cell_length_a   3.68222552
_cell_length_b   11.21854540
_cell_length_c   4.93476835
_cell_angle_alpha   89.99999795
_cell_angle_beta   91.33204168
_cell_angle_gamma   89.99999892
_symmetry_Int_Tables_number   1
_chemical_formula_structural   H3C2NO
_chemical_formula_sum   'H12 C8 N4 O4'
_cell_volume   203.79631486
_cell_formula_units_Z   4
loop_
 _symmetry_equiv_pos_site_id
 _symmetry_equiv_pos_as_xyz
  1  'x, y, z'
loop_
 _atom_site_type_symbol
 _atom_site_label
 _atom_site_symmetry_multiplicity
 _atom_site_fract_x
 _atom_site_fract_y
 _atom_site_fract_z
 _atom_site_occupancy
  C  C1  1  0.971147  0.128342  0.561454  1
  C  C2  1  0.028852  0.871663  0.438548  1
  C  C3  1  0.028852  0.628337  0.938548  1
  C  C4  1  0.971147  0.371658  0.061454  1
  C  C5  1  0.782010  0.073348  0.318086  1
  C  C6  1  0.217986  0.926660  0.681913  1
  C  C7  1  0.217986  0.573340  0.181912  1
  C  C8  1  0.782009  0.426652  0.818085  1
  H  H9  1  0.769137  0.173037  0.683181  1
  H  H10  1  0.230851  0.826962  0.316821  1
  H  H11  1  0.230851  0.673038  0.816821  1
  H  H12  1  0.769137  0.326963  0.183181  1
  H  H13  1  0.683980  0.922650  0.103893  1
  H  H14  1  0.316025  0.077349  0.896109  1
  H  H15  1  0.316025  0.422651  0.396109  1
  H  H16  1  0.683980  0.577350  0.603893  1
  H  H17  1  0.154635  0.197485  0.489373  1
  H  H18  1  0.845370  0.802516  0.510621  1
  H  H19  1  0.845370  0.697484  0.010621  1
  H  H20  1  0.154635  0.302515  0.989373  1
  N  N21  1  0.822721  0.956810  0.270784  1
  N  N22  1  0.177279  0.043188  0.729210  1
  N  N23  1  0.177279  0.456812  0.229210  1
  N  N24  1  0.822721  0.543190  0.770784  1
  O  O25  1  0.587352  0.139066  0.165600  1
  O  O26  1  0.412656  0.860934  0.834408  1
  O  O27  1  0.412657  0.639066  0.334408  1
  O  O28  1  0.587352  0.360934  0.665601  1
 
# Source:                            Grazulis_etal:NucleicAcidsRes.40.D420(2012)                                     
# Class:                             organic_molec_crystal                                                           
# Label:                             COD-7206037                                                                     
# Structure prediction method used:  NA                                                                              
# Number of atoms:                    28
# Number of atom types:                4
# Atom types:                         C  H  N  O
# Dielectric constant, electronic:   2.93762E+00
# Dielectric constant, ionic:        7.84217E-01
# Dielectric constant, total:        3.72184E+00
# Band gap at the GGA level (eV):    4.04190E+00
# Band gap at the HSE06 level (eV):  5.68190E+00
# Atomization energy (eV/atom):     -5.91243E+00
# Volume of the unit cell (A^3):     2.03796E+02
