# generated using pymatgen
data_H6C3N2O3
_symmetry_space_group_name_H-M   'P 1'
_cell_length_a   4.69544238
_cell_length_b   5.49161171
_cell_length_c   8.43953448
_cell_angle_alpha   90.00000000
_cell_angle_beta   100.70583645
_cell_angle_gamma   90.00000000
_symmetry_Int_Tables_number   1
_chemical_formula_structural   H6C3N2O3
_chemical_formula_sum   'H12 C6 N4 O6'
_cell_volume   213.830122163
_cell_formula_units_Z   2
loop_
 _symmetry_equiv_pos_site_id
 _symmetry_equiv_pos_as_xyz
  1  'x, y, z'
loop_
 _atom_site_type_symbol
 _atom_site_label
 _atom_site_symmetry_multiplicity
 _atom_site_fract_x
 _atom_site_fract_y
 _atom_site_fract_z
 _atom_site_occupancy
  C  C1  1  0.949659  0.250000  0.141729  1
  C  C2  1  0.050341  0.750000  0.858271  1
  C  C3  1  0.858116  0.250000  0.303149  1
  C  C4  1  0.141884  0.750000  0.696851  1
  C  C5  1  0.123955  0.250000  0.438430  1
  C  C6  1  0.876045  0.750000  0.561570  1
  H  H7  1  0.720205  0.408468  0.309407  1
  H  H8  1  0.279795  0.591532  0.690593  1
  H  H9  1  0.279795  0.908468  0.690593  1
  H  H10  1  0.720205  0.091532  0.309407  1
  H  H11  1  0.054013  0.250000  0.553896  1
  H  H12  1  0.945987  0.750000  0.446104  1
  H  H13  1  0.258506  0.089462  0.431778  1
  H  H14  1  0.741494  0.910538  0.568222  1
  H  H15  1  0.741494  0.589462  0.568222  1
  H  H16  1  0.258506  0.410538  0.431778  1
  H  H17  1  0.505557  0.250000  0.023006  1
  H  H18  1  0.494443  0.750000  0.976994  1
  N  N19  1  0.753587  0.250000  0.848341  1
  N  N20  1  0.246413  0.750000  0.151659  1
  N  N21  1  0.719174  0.250000  0.009059  1
  N  N22  1  0.280826  0.750000  0.990941  1
  O  O23  1  0.525952  0.250000  0.745633  1
  O  O24  1  0.474048  0.750000  0.254367  1
  O  O25  1  0.002484  0.250000  0.817674  1
  O  O26  1  0.997516  0.750000  0.182326  1
  O  O27  1  0.206432  0.250000  0.127552  1
  O  O28  1  0.793568  0.750000  0.872448  1
 
# Source:                            Grazulis_etal:NucleicAcidsRes.40.D420(2012)                                     
# Class:                             organic_molec_crystal                                                           
# Label:                             COD-4324819                                                                     
# Structure prediction method used:  NA                                                                              
# Number of atoms:                    28
# Number of atom types:                4
# Atom types:                         C  H  N  O
# Dielectric constant, electronic:   2.86241E+00
# Dielectric constant, ionic:        5.94323E-01
# Dielectric constant, total:        3.45674E+00
# Band gap at the GGA level (eV):    2.44680E+00
# Band gap at the HSE06 level (eV):  4.21600E+00
# Atomization energy (eV/atom):     -5.49643E+00
# Volume of the unit cell (A^3):     2.13830E+02
