# generated using pymatgen
data_SnH28(C13O2)2
_symmetry_space_group_name_H-M   'P 1'
_cell_length_a   12.14902270
_cell_length_b   6.46870656
_cell_length_c   13.43851573
_cell_angle_alpha   90.00000000
_cell_angle_beta   98.66198639
_cell_angle_gamma   90.00000000
_symmetry_Int_Tables_number   1
_chemical_formula_structural   SnH28(C13O2)2
_chemical_formula_sum   'Sn2 H56 C52 O8'
_cell_volume   1044.066303
_cell_formula_units_Z   2
loop_
 _symmetry_equiv_pos_site_id
 _symmetry_equiv_pos_as_xyz
  1  'x, y, z'
loop_
 _atom_site_type_symbol
 _atom_site_label
 _atom_site_symmetry_multiplicity
 _atom_site_fract_x
 _atom_site_fract_y
 _atom_site_fract_z
 _atom_site_occupancy
  C  C1  1  0.350100  0.719616  0.358366  1
  C  C2  1  0.649900  0.219616  0.641634  1
  C  C3  1  0.315504  0.739610  0.452904  1
  C  C4  1  0.684496  0.239610  0.547096  1
  C  C5  1  0.350293  0.908920  0.514525  1
  C  C6  1  0.649707  0.408920  0.485475  1
  C  C7  1  0.419093  0.059798  0.481861  1
  C  C8  1  0.580907  0.559798  0.518139  1
  C  C9  1  0.454956  0.039598  0.388341  1
  C  C10  1  0.545044  0.539598  0.611659  1
  C  C11  1  0.419935  0.871034  0.326458  1
  C  C12  1  0.580065  0.371034  0.673542  1
  C  C13  1  0.400542  0.316270  0.174409  1
  C  C14  1  0.599458  0.816270  0.825591  1
  C  C15  1  0.516929  0.333727  0.194072  1
  C  C16  1  0.483071  0.833727  0.805928  1
  C  C17  1  0.584015  0.203074  0.145897  1
  C  C18  1  0.415985  0.703074  0.854103  1
  C  C19  1  0.535074  0.057591  0.075527  1
  C  C20  1  0.464926  0.557591  0.924473  1
  C  C21  1  0.419280  0.042039  0.054156  1
  C  C22  1  0.580720  0.542039  0.945844  1
  C  C23  1  0.352501  0.169724  0.103905  1
  C  C24  1  0.647499  0.669724  0.896095  1
  C  C25  1  0.187993  0.671450  0.135228  1
  C  C26  1  0.812007  0.171450  0.864772  1
  C  C27  1  0.206400  0.670617  0.034740  1
  C  C28  1  0.793600  0.170617  0.965260  1
  C  C29  1  0.149961  0.808983  0.964890  1
  C  C30  1  0.850039  0.308983  0.035110  1
  C  C31  1  0.072035  0.946657  0.994182  1
  C  C32  1  0.927965  0.446657  0.005818  1
  C  C33  1  0.051621  0.946170  0.093878  1
  C  C34  1  0.948379  0.446170  0.906122  1
  C  C35  1  0.110255  0.811449  0.163827  1
  C  C36  1  0.889745  0.311449  0.836173  1
  C  C37  1  0.958620  0.602005  0.380372  1
  C  C38  1  0.041380  0.102005  0.619628  1
  C  C39  1  0.881226  0.412321  0.362442  1
  C  C40  1  0.118774  0.912321  0.637558  1
  C  C41  1  0.953750  0.244631  0.321243  1
  C  C42  1  0.046250  0.744631  0.678757  1
  C  C43  1  0.054858  0.366236  0.294553  1
  C  C44  1  0.945142  0.866236  0.705447  1
  C  C45  1  0.167554  0.262853  0.305567  1
  C  C46  1  0.832446  0.762853  0.694433  1
  C  C47  1  0.794635  0.701045  0.273378  1
  C  C48  1  0.205365  0.201045  0.726622  1
  C  C49  1  0.757234  0.750474  0.163315  1
  C  C50  1  0.242766  0.250474  0.836685  1
  C  C51  1  0.729289  0.818992  0.344398  1
  C  C52  1  0.270711  0.318992  0.655602  1
  H  H53  1  0.260723  0.624686  0.478336  1
  H  H54  1  0.739277  0.124686  0.521664  1
  H  H55  1  0.325216  0.922415  0.588268  1
  H  H56  1  0.674784  0.422415  0.411732  1
  H  H57  1  0.445026  0.192027  0.528793  1
  H  H58  1  0.554974  0.692027  0.471207  1
  H  H59  1  0.510175  0.153988  0.364169  1
  H  H60  1  0.489825  0.653988  0.635831  1
  H  H61  1  0.446919  0.859726  0.253055  1
  H  H62  1  0.553081  0.359726  0.746945  1
  H  H63  1  0.556472  0.445375  0.248550  1
  H  H64  1  0.443528  0.945375  0.751450  1
  H  H65  1  0.673768  0.218047  0.163405  1
  H  H66  1  0.326232  0.718047  0.836595  1
  H  H67  1  0.585608  0.956967  0.036640  1
  H  H68  1  0.414392  0.456967  0.963360  1
  H  H69  1  0.381547  0.929673  0.000038  1
  H  H70  1  0.618453  0.429673  0.999962  1
  H  H71  1  0.262562  0.151770  0.087857  1
  H  H72  1  0.737438  0.651770  0.912143  1
  H  H73  1  0.266005  0.563548  0.010938  1
  H  H74  1  0.733995  0.063548  0.989062  1
  H  H75  1  0.167279  0.811176  0.887967  1
  H  H76  1  0.832721  0.311176  0.112033  1
  H  H77  1  0.028096  0.053954  0.940512  1
  H  H78  1  0.971904  0.553954  0.059488  1
  H  H79  1  0.990908  0.051564  0.116729  1
  H  H80  1  0.009092  0.551564  0.883271  1
  H  H81  1  0.094557  0.814927  0.241074  1
  H  H82  1  0.905443  0.314927  0.758926  1
  H  H83  1  0.962622  0.678016  0.452783  1
  H  H84  1  0.037378  0.178016  0.547217  1
  H  H85  1  0.852145  0.358885  0.431062  1
  H  H86  1  0.147855  0.858885  0.568938  1
  H  H87  1  0.907456  0.170916  0.254409  1
  H  H88  1  0.092544  0.670916  0.745591  1
  H  H89  1  0.962851  0.959139  0.365845  1
  H  H90  1  0.037149  0.459139  0.634155  1
  H  H91  1  0.031215  0.431684  0.219009  1
  H  H92  1  0.968785  0.931684  0.780991  1
  H  H93  1  0.166668  0.127718  0.257235  1
  H  H94  1  0.833332  0.627718  0.742765  1
  H  H95  1  0.195174  0.214835  0.383234  1
  H  H96  1  0.804826  0.714835  0.616766  1
  H  H97  1  0.763951  0.916680  0.151253  1
  H  H98  1  0.236049  0.416680  0.848747  1
  H  H99  1  0.670422  0.704332  0.141642  1
  H  H100  1  0.329578  0.204332  0.858358  1
  H  H101  1  0.808894  0.670050  0.116235  1
  H  H102  1  0.191106  0.170050  0.883765  1
  H  H103  1  0.736471  0.985766  0.332421  1
  H  H104  1  0.263529  0.485766  0.667579  1
  H  H105  1  0.760454  0.784750  0.423370  1
  H  H106  1  0.239546  0.284750  0.576630  1
  H  H107  1  0.641146  0.777940  0.328802  1
  H  H108  1  0.358854  0.277940  0.671198  1
  O  O109  1  0.912963  0.744309  0.297862  1
  O  O110  1  0.087037  0.244309  0.702138  1
  O  O111  1  0.787832  0.476050  0.287599  1
  O  O112  1  0.212168  0.976050  0.712401  1
  O  O113  1  0.987193  0.091834  0.397313  1
  O  O114  1  0.012807  0.591834  0.602687  1
  O  O115  1  0.066051  0.541233  0.367685  1
  O  O116  1  0.933949  0.041233  0.632315  1
  Sn  Sn117  1  0.284319  0.482994  0.252165  1
  Sn  Sn118  1  0.715681  0.982994  0.747835  1
 
# Source:                            Grazulis_etal:NucleicAcidsRes.40.D420(2012)                                     
# Class:                             organometallic_Sn_molec_crystal                                                 
# Label:                             COD-2008026                                                                     
# Structure prediction method used:  NA                                                                              
# Number of atoms:                   118
# Number of atom types:                4
# Atom types:                         C  H  O Sn
# Dielectric constant, electronic:   2.98360E+00
# Dielectric constant, ionic:        1.03141E+00
# Dielectric constant, total:        4.01500E+00
# Band gap at the GGA level (eV):    3.84120E+00
# Band gap at the HSE06 level (eV):  4.87170E+00
# Atomization energy (eV/atom):     -5.74720E+00
# Volume of the unit cell (A^3):     1.04407E+03
