# generated using pymatgen
data_SnH27C23O2
_symmetry_space_group_name_H-M   'P 1'
_cell_length_a   5.86327997
_cell_length_b   8.59939627
_cell_length_c   19.63310219
_cell_angle_alpha   80.76945707
_cell_angle_beta   83.30786354
_cell_angle_gamma   76.36855519
_symmetry_Int_Tables_number   1
_chemical_formula_structural   SnH27C23O2
_chemical_formula_sum   'Sn2 H54 C46 O4'
_cell_volume   946.368885308
_cell_formula_units_Z   2
loop_
 _symmetry_equiv_pos_site_id
 _symmetry_equiv_pos_as_xyz
  1  'x, y, z'
loop_
 _atom_site_type_symbol
 _atom_site_label
 _atom_site_symmetry_multiplicity
 _atom_site_fract_x
 _atom_site_fract_y
 _atom_site_fract_z
 _atom_site_occupancy
  C  C1  1  0.309807  0.222181  0.311425  1
  C  C2  1  0.690193  0.777819  0.688575  1
  C  C3  1  0.467943  0.311846  0.339793  1
  C  C4  1  0.532057  0.688154  0.660207  1
  C  C5  1  0.557757  0.236483  0.409935  1
  C  C6  1  0.442243  0.763517  0.590065  1
  C  C7  1  0.799860  0.992694  0.464132  1
  C  C8  1  0.200140  0.007306  0.535868  1
  C  C9  1  0.956981  0.843502  0.460014  1
  C  C10  1  0.043019  0.156498  0.539986  1
  C  C11  1  0.842306  0.551253  0.282598  1
  C  C12  1  0.157694  0.448747  0.717402  1
  C  C13  1  0.828935  0.549434  0.354660  1
  C  C14  1  0.171065  0.450566  0.645340  1
  C  C15  1  0.656499  0.662195  0.387449  1
  C  C16  1  0.343501  0.337805  0.612551  1
  C  C17  1  0.498425  0.780765  0.348421  1
  C  C18  1  0.501575  0.219235  0.651579  1
  C  C19  1  0.509772  0.783407  0.276839  1
  C  C20  1  0.490228  0.216593  0.723161  1
  C  C21  1  0.679875  0.669460  0.244299  1
  C  C22  1  0.320125  0.330540  0.755701  1
  C  C23  1  0.980732  0.245787  0.162239  1
  C  C24  1  0.019268  0.754213  0.837761  1
  C  C25  1  0.835364  0.137815  0.188577  1
  C  C26  1  0.164636  0.862185  0.811423  1
  C  C27  1  0.743671  0.060684  0.143921  1
  C  C28  1  0.256329  0.939316  0.856079  1
  C  C29  1  0.796431  0.091159  0.072454  1
  C  C30  1  0.203569  0.908841  0.927546  1
  C  C31  1  0.941561  0.197798  0.045343  1
  C  C32  1  0.058439  0.802202  0.954657  1
  C  C33  1  0.034241  0.273286  0.090243  1
  C  C34  1  0.965759  0.726714  0.909757  1
  C  C35  1  0.287885  0.547306  0.154172  1
  C  C36  1  0.712115  0.452694  0.845828  1
  C  C37  1  0.213440  0.715488  0.153032  1
  C  C38  1  0.786560  0.284512  0.846968  1
  C  C39  1  0.327368  0.821155  0.107425  1
  C  C40  1  0.672632  0.178845  0.892575  1
  C  C41  1  0.516702  0.759522  0.061878  1
  C  C42  1  0.483298  0.240478  0.938122  1
  C  C43  1  0.589348  0.593048  0.061476  1
  C  C44  1  0.410652  0.406952  0.938524  1
  C  C45  1  0.474860  0.488002  0.107096  1
  C  C46  1  0.525140  0.511998  0.892904  1
  H  H47  1  0.174983  0.188106  0.350937  1
  H  H48  1  0.825017  0.811894  0.649063  1
  H  H49  1  0.410854  0.111940  0.292249  1
  H  H50  1  0.589146  0.888060  0.707751  1
  H  H51  1  0.617308  0.324669  0.302207  1
  H  H52  1  0.382692  0.675331  0.697793  1
  H  H53  1  0.373711  0.435955  0.346004  1
  H  H54  1  0.626289  0.564045  0.653996  1
  H  H55  1  0.641749  0.317309  0.430782  1
  H  H56  1  0.358251  0.682691  0.569218  1
  H  H57  1  0.415845  0.207374  0.447162  1
  H  H58  1  0.584155  0.792626  0.552838  1
  H  H59  1  0.023534  0.835619  0.295389  1
  H  H60  1  0.976466  0.164381  0.704611  1
  H  H61  1  0.188533  0.497684  0.470216  1
  H  H62  1  0.811467  0.502316  0.529784  1
  H  H63  1  0.992420  0.763021  0.507556  1
  H  H64  1  0.007580  0.236979  0.492444  1
  H  H65  1  0.281265  0.540365  0.454821  1
  H  H66  1  0.718735  0.459635  0.545179  1
  H  H67  1  0.940670  0.905049  0.308390  1
  H  H68  1  0.059330  0.094951  0.691610  1
  H  H69  1  0.019169  0.799277  0.411432  1
  H  H70  1  0.980831  0.200723  0.588568  1
  H  H71  1  0.951559  0.458863  0.385840  1
  H  H72  1  0.048441  0.541137  0.614160  1
  H  H73  1  0.644640  0.659682  0.443081  1
  H  H74  1  0.355360  0.340318  0.556919  1
  H  H75  1  0.371105  0.870497  0.373862  1
  H  H76  1  0.628895  0.129503  0.626138  1
  H  H77  1  0.385820  0.874109  0.246462  1
  H  H78  1  0.614180  0.125891  0.753538  1
  H  H79  1  0.685980  0.673513  0.188627  1
  H  H80  1  0.314020  0.326487  0.811373  1
  H  H81  1  0.790743  0.113954  0.243828  1
  H  H82  1  0.209257  0.886046  0.756172  1
  H  H83  1  0.631025  0.978043  0.164604  1
  H  H84  1  0.368975  0.021957  0.835396  1
  H  H85  1  0.724813  0.032655  0.037865  1
  H  H86  1  0.275187  0.967345  0.962135  1
  H  H87  1  0.978303  0.223418  0.989661  1
  H  H88  1  0.021697  0.776582  0.010339  1
  H  H89  1  0.144065  0.357581  0.068884  1
  H  H90  1  0.855935  0.642419  0.931116  1
  H  H91  1  0.068290  0.765832  0.188219  1
  H  H92  1  0.931710  0.234168  0.811781  1
  H  H93  1  0.269112  0.950479  0.107773  1
  H  H94  1  0.730888  0.049521  0.892227  1
  H  H95  1  0.605266  0.840004  0.026007  1
  H  H96  1  0.394734  0.159996  0.973993  1
  H  H97  1  0.733987  0.543848  0.025949  1
  H  H98  1  0.266013  0.456152  0.974051  1
  H  H99  1  0.532686  0.359516  0.105464  1
  H  H100  1  0.467314  0.640484  0.894536  1
  O  O101  1  0.738648  0.047934  0.521406  1
  O  O102  1  0.261352  0.952066  0.478594  1
  O  O103  1  0.734570  0.084807  0.402061  1
  O  O104  1  0.265430  0.915193  0.597939  1
  Sn  Sn105  1  0.113848  0.382574  0.227777  1
  Sn  Sn106  1  0.886152  0.617426  0.772223  1
 
# Source:                            Grazulis_etal:NucleicAcidsRes.40.D420(2012)                                     
# Class:                             organometallic_Sn_molec_crystal                                                 
# Label:                             COD-2009055                                                                     
# Structure prediction method used:  NA                                                                              
# Number of atoms:                   106
# Number of atom types:                4
# Atom types:                         C  H  O Sn
# Dielectric constant, electronic:   3.18420E+00
# Dielectric constant, ionic:        3.64607E-01
# Dielectric constant, total:        3.54881E+00
# Band gap at the GGA level (eV):    1.31080E+00
# Band gap at the HSE06 level (eV):  2.08070E+00
# Atomization energy (eV/atom):     -5.60701E+00
# Volume of the unit cell (A^3):     9.46369E+02
