# generated using pymatgen
data_SnH22(C5O)2
_symmetry_space_group_name_H-M   'P 1'
_cell_length_a   5.97297939
_cell_length_b   8.81352900
_cell_length_c   11.04922737
_cell_angle_alpha   73.03262228
_cell_angle_beta   82.36818306
_cell_angle_gamma   80.18454150
_symmetry_Int_Tables_number   1
_chemical_formula_structural   SnH22(C5O)2
_chemical_formula_sum   'Sn2 H44 C20 O4'
_cell_volume   546.06877146
_cell_formula_units_Z   2
loop_
 _symmetry_equiv_pos_site_id
 _symmetry_equiv_pos_as_xyz
  1  'x, y, z'
loop_
 _atom_site_type_symbol
 _atom_site_label
 _atom_site_symmetry_multiplicity
 _atom_site_fract_x
 _atom_site_fract_y
 _atom_site_fract_z
 _atom_site_occupancy
  C  C1  1  0.695655  0.793649  0.703687  1
  C  C2  1  0.304345  0.206351  0.296313  1
  C  C3  1  0.579898  0.763231  0.840279  1
  C  C4  1  0.420102  0.236769  0.159721  1
  C  C5  1  0.574826  0.908965  0.889517  1
  C  C6  1  0.425175  0.091035  0.110482  1
  C  C7  1  0.333447  0.729870  0.844243  1
  C  C8  1  0.666554  0.270130  0.155757  1
  C  C9  1  0.720493  0.619489  0.927180  1
  C  C10  1  0.279507  0.380511  0.072820  1
  C  C11  1  0.868979  0.799482  0.386808  1
  C  C12  1  0.131021  0.200518  0.613192  1
  C  C13  1  0.996400  0.720800  0.283669  1
  C  C14  1  0.003599  0.279200  0.716331  1
  C  C15  1  0.253626  0.673558  0.300675  1
  C  C16  1  0.746374  0.326442  0.699325  1
  C  C17  1  0.962191  0.834491  0.149621  1
  C  C18  1  0.037809  0.165509  0.850379  1
  C  C19  1  0.886353  0.568534  0.300136  1
  C  C20  1  0.113646  0.431466  0.699864  1
  H  H21  1  0.871688  0.813374  0.704453  1
  H  H22  1  0.128312  0.186626  0.295547  1
  H  H23  1  0.700896  0.686648  0.670481  1
  H  H24  1  0.299105  0.313352  0.329520  1
  H  H25  1  0.747053  0.927500  0.899134  1
  H  H26  1  0.252947  0.072500  0.100866  1
  H  H27  1  0.479171  0.889659  0.982820  1
  H  H28  1  0.520829  0.110341  0.017180  1
  H  H29  1  0.492551  0.017435  0.825921  1
  H  H30  1  0.507450  0.982565  0.174079  1
  H  H31  1  0.227120  0.835543  0.790851  1
  H  H32  1  0.772880  0.164457  0.209149  1
  H  H33  1  0.255970  0.700163  0.941913  1
  H  H34  1  0.744030  0.299837  0.058087  1
  H  H35  1  0.327829  0.629483  0.805661  1
  H  H36  1  0.672171  0.370517  0.194339  1
  H  H37  1  0.718568  0.508582  0.902283  1
  H  H38  1  0.281432  0.491418  0.097718  1
  H  H39  1  0.650668  0.602631  0.026209  1
  H  H40  1  0.349332  0.397369  0.973791  1
  H  H41  1  0.898259  0.639152  0.921392  1
  H  H42  1  0.101741  0.360848  0.078608  1
  H  H43  1  0.690284  0.834433  0.365513  1
  H  H44  1  0.309716  0.165567  0.634487  1
  H  H45  1  0.872569  0.707905  0.479160  1
  H  H46  1  0.127431  0.292095  0.520840  1
  H  H47  1  0.337139  0.612441  0.229878  1
  H  H48  1  0.662861  0.387560  0.770122  1
  H  H49  1  0.285060  0.592228  0.394965  1
  H  H50  1  0.714940  0.407772  0.605035  1
  H  H51  1  0.336974  0.779308  0.287255  1
  H  H52  1  0.663026  0.220692  0.712745  1
  H  H53  1  0.980335  0.957199  0.145418  1
  H  H54  1  0.019666  0.042801  0.854582  1
  H  H55  1  0.792901  0.834849  0.122451  1
  H  H56  1  0.207099  0.165152  0.877549  1
  H  H57  1  0.087568  0.796999  0.078554  1
  H  H58  1  0.912433  0.203001  0.921446  1
  H  H59  1  0.701091  0.597579  0.297731  1
  H  H60  1  0.298909  0.402421  0.702269  1
  H  H61  1  0.920867  0.480079  0.390819  1
  H  H62  1  0.079133  0.519921  0.609181  1
  H  H63  1  0.951912  0.512423  0.224115  1
  H  H64  1  0.048088  0.487577  0.775884  1
  O  O65  1  0.577437  0.930408  0.616728  1
  O  O66  1  0.422563  0.069591  0.383272  1
  O  O67  1  0.956768  0.939220  0.395571  1
  O  O68  1  0.043232  0.060780  0.604429  1
  Sn  Sn69  1  0.728512  0.123346  0.473720  1
  Sn  Sn70  1  0.271488  0.876654  0.526280  1
 
# Source:                            Grazulis_etal:NucleicAcidsRes.40.D420(2012)                                     
# Class:                             organometallic_Sn_molec_crystal                                                 
# Label:                             COD-2100019                                                                     
# Structure prediction method used:  NA                                                                              
# Number of atoms:                    70
# Number of atom types:                4
# Atom types:                         C  H  O Sn
# Dielectric constant, electronic:   2.87467E+00
# Dielectric constant, ionic:        8.98862E-01
# Dielectric constant, total:        3.77354E+00
# Band gap at the GGA level (eV):    3.50270E+00
# Band gap at the HSE06 level (eV):  4.56850E+00
# Atomization energy (eV/atom):     -5.08256E+00
# Volume of the unit cell (A^3):     5.46069E+02
