# generated using pymatgen
data_Sn2H22(C3O)5
_symmetry_space_group_name_H-M   'P 1'
_cell_length_a   8.08240735
_cell_length_b   9.14016590
_cell_length_c   12.52173233
_cell_angle_alpha   106.52112411
_cell_angle_beta   96.83015262
_cell_angle_gamma   112.59200974
_symmetry_Int_Tables_number   1
_chemical_formula_structural   Sn2H22(C3O)5
_chemical_formula_sum   'Sn4 H44 C30 O10'
_cell_volume   791.12194338
_cell_formula_units_Z   2
loop_
 _symmetry_equiv_pos_site_id
 _symmetry_equiv_pos_as_xyz
  1  'x, y, z'
loop_
 _atom_site_type_symbol
 _atom_site_label
 _atom_site_symmetry_multiplicity
 _atom_site_fract_x
 _atom_site_fract_y
 _atom_site_fract_z
 _atom_site_occupancy
  C  C1  1  0.390616  0.972562  0.608134  1
  C  C2  1  0.609382  0.027440  0.391868  1
  C  C3  1  0.704416  0.848476  0.822938  1
  C  C4  1  0.295584  0.151522  0.177061  1
  C  C5  1  0.574394  0.625638  0.298253  1
  C  C6  1  0.425606  0.374363  0.701748  1
  C  C7  1  0.939496  0.659477  0.564367  1
  C  C8  1  0.060506  0.340526  0.435634  1
  C  C9  1  0.168449  0.645893  0.775077  1
  C  C10  1  0.831549  0.354106  0.224923  1
  C  C11  1  0.178191  0.792909  0.860344  1
  C  C12  1  0.821812  0.207092  0.139653  1
  C  C13  1  0.054596  0.775687  0.928186  1
  C  C14  1  0.945400  0.224312  0.071815  1
  C  C15  1  0.918676  0.614741  0.918786  1
  C  C16  1  0.081325  0.385260  0.081211  1
  C  C17  1  0.793360  0.590445  0.990819  1
  C  C18  1  0.206637  0.409556  0.009179  1
  C  C19  1  0.672795  0.428219  0.978274  1
  C  C20  1  0.327206  0.571781  0.021724  1
  C  C21  1  0.662284  0.280724  0.892875  1
  C  C22  1  0.337729  0.719285  0.107130  1
  C  C23  1  0.912305  0.470575  0.834046  1
  C  C24  1  0.087691  0.529426  0.165955  1
  C  C25  1  0.030550  0.484261  0.762357  1
  C  C26  1  0.969449  0.515738  0.237639  1
  C  C27  1  0.795822  0.742470  0.079696  1
  C  C28  1  0.204176  0.257529  0.920303  1
  C  C29  1  0.928139  0.046792  0.625451  1
  C  C30  1  0.071858  0.953207  0.374548  1
  H  H31  1  0.495322  0.095403  0.615154  1
  H  H32  1  0.504677  0.904597  0.384846  1
  H  H33  1  0.290152  0.987118  0.655547  1
  H  H34  1  0.709845  0.012885  0.344452  1
  H  H35  1  0.322942  0.893121  0.517852  1
  H  H36  1  0.677058  0.106879  0.482150  1
  H  H37  1  0.693619  0.720205  0.799697  1
  H  H38  1  0.306383  0.279794  0.200300  1
  H  H39  1  0.654037  0.881485  0.899026  1
  H  H40  1  0.345966  0.118510  0.100975  1
  H  H41  1  0.847434  0.937917  0.836225  1
  H  H42  1  0.152564  0.062083  0.163773  1
  H  H43  1  0.429786  0.600991  0.293043  1
  H  H44  1  0.570213  0.399007  0.706956  1
  H  H45  1  0.584275  0.522317  0.234279  1
  H  H46  1  0.415729  0.477686  0.765723  1
  H  H47  1  0.649481  0.746060  0.288409  1
  H  H48  1  0.350517  0.253941  0.711591  1
  H  H49  1  0.984591  0.760034  0.648408  1
  H  H50  1  0.015411  0.239969  0.351593  1
  H  H51  1  0.047718  0.685361  0.518855  1
  H  H52  1  0.952284  0.314642  0.481147  1
  H  H53  1  0.904662  0.537758  0.574424  1
  H  H54  1  0.095339  0.462245  0.425577  1
  H  H55  1  0.284016  0.917191  0.871359  1
  H  H56  1  0.715984  0.082807  0.128640  1
  H  H57  1  0.062299  0.888345  0.991455  1
  H  H58  1  0.937701  0.111653  0.008544  1
  H  H59  1  0.580647  0.405587  0.033973  1
  H  H60  1  0.419353  0.594412  0.966026  1
  H  H61  1  0.020122  0.372609  0.696695  1
  H  H62  1  0.979878  0.627390  0.303305  1
  H  H63  1  0.703819  0.704498  0.133314  1
  H  H64  1  0.296180  0.295499  0.866685  1
  H  H65  1  0.751449  0.816992  0.038673  1
  H  H66  1  0.248548  0.183008  0.961328  1
  H  H67  1  0.935859  0.826209  0.134771  1
  H  H68  1  0.064141  0.173789  0.865228  1
  H  H69  1  0.037962  0.007463  0.642651  1
  H  H70  1  0.962035  0.992534  0.357345  1
  H  H71  1  0.932687  0.136463  0.706118  1
  H  H72  1  0.067315  0.863537  0.293882  1
  H  H73  1  0.959375  0.113256  0.564475  1
  H  H74  1  0.040617  0.886741  0.435523  1
  O  O75  1  0.555190  0.130440  0.873056  1
  O  O76  1  0.444829  0.869556  0.126953  1
  O  O77  1  0.466535  0.625744  0.546253  1
  O  O78  1  0.533465  0.374257  0.453749  1
  O  O79  1  0.748650  0.905876  0.580163  1
  O  O80  1  0.251346  0.094123  0.419839  1
  O  O81  1  0.279136  0.652944  0.705244  1
  O  O82  1  0.720864  0.347053  0.294755  1
  O  O83  1  0.785319  0.306875  0.820785  1
  O  O84  1  0.214684  0.693124  0.179213  1
  Sn  Sn85  1  0.525874  0.847731  0.679866  1
  Sn  Sn86  1  0.474121  0.152271  0.320136  1
  Sn  Sn87  1  0.683579  0.634368  0.467996  1
  Sn  Sn88  1  0.316421  0.365635  0.532006  1
 
# Source:                            Grazulis_etal:NucleicAcidsRes.40.D420(2012)                                     
# Class:                             organometallic_Sn_molec_crystal                                                 
# Label:                             COD-2202377                                                                     
# Structure prediction method used:  NA                                                                              
# Number of atoms:                    88
# Number of atom types:                4
# Atom types:                         C  H  O Sn
# Dielectric constant, electronic:   3.23546E+00
# Dielectric constant, ionic:        2.07653E+00
# Dielectric constant, total:        5.31199E+00
# Band gap at the GGA level (eV):    2.30180E+00
# Band gap at the HSE06 level (eV):  3.21480E+00
# Atomization energy (eV/atom):     -5.45438E+00
# Volume of the unit cell (A^3):     7.91122E+02
