# generated using pymatgen
data_SnH10(C5O2)2
_symmetry_space_group_name_H-M   'P 1'
_cell_length_a   9.69903898
_cell_length_b   14.03418970
_cell_length_c   6.79975057
_cell_angle_alpha   90.00000000
_cell_angle_beta   92.15580579
_cell_angle_gamma   90.00000000
_symmetry_Int_Tables_number   1
_chemical_formula_structural   SnH10(C5O2)2
_chemical_formula_sum   'Sn4 H40 C40 O16'
_cell_volume   924.914397729
_cell_formula_units_Z   4
loop_
 _symmetry_equiv_pos_site_id
 _symmetry_equiv_pos_as_xyz
  1  'x, y, z'
loop_
 _atom_site_type_symbol
 _atom_site_label
 _atom_site_symmetry_multiplicity
 _atom_site_fract_x
 _atom_site_fract_y
 _atom_site_fract_z
 _atom_site_occupancy
  C  C1  1  0.262087  0.432458  0.199044  1
  C  C2  1  0.737913  0.567542  0.800956  1
  C  C3  1  0.737913  0.932458  0.300956  1
  C  C4  1  0.262087  0.067542  0.699044  1
  C  C5  1  0.094914  0.442340  0.637489  1
  C  C6  1  0.905086  0.557660  0.362511  1
  C  C7  1  0.905086  0.942340  0.862511  1
  C  C8  1  0.094914  0.057660  0.137489  1
  C  C9  1  0.419818  0.354011  0.731107  1
  C  C10  1  0.580182  0.645989  0.268893  1
  C  C11  1  0.580182  0.854011  0.768893  1
  C  C12  1  0.419818  0.145989  0.231107  1
  C  C13  1  0.542262  0.309348  0.643705  1
  C  C14  1  0.457738  0.690652  0.356295  1
  C  C15  1  0.457738  0.809348  0.856295  1
  C  C16  1  0.542262  0.190652  0.143705  1
  C  C17  1  0.556492  0.210074  0.646245  1
  C  C18  1  0.443508  0.789926  0.353755  1
  C  C19  1  0.443508  0.710074  0.853755  1
  C  C20  1  0.556492  0.289926  0.146245  1
  C  C21  1  0.678466  0.167994  0.591265  1
  C  C22  1  0.321534  0.832006  0.408735  1
  C  C23  1  0.321534  0.667994  0.908735  1
  C  C24  1  0.678466  0.332006  0.091265  1
  C  C25  1  0.789460  0.225230  0.537345  1
  C  C26  1  0.210540  0.774770  0.462655  1
  C  C27  1  0.210540  0.725230  0.962655  1
  C  C28  1  0.789460  0.274770  0.037345  1
  C  C29  1  0.923975  0.179644  0.505437  1
  C  C30  1  0.076025  0.820356  0.494563  1
  C  C31  1  0.076025  0.679644  0.994563  1
  C  C32  1  0.923975  0.320356  0.005437  1
  C  C33  1  0.772351  0.324289  0.522740  1
  C  C34  1  0.227649  0.675711  0.477260  1
  C  C35  1  0.227649  0.824289  0.977260  1
  C  C36  1  0.772351  0.175711  0.022740  1
  C  C37  1  0.648408  0.366218  0.572527  1
  C  C38  1  0.351592  0.633782  0.427473  1
  C  C39  1  0.351592  0.866218  0.927473  1
  C  C40  1  0.648408  0.133782  0.072527  1
  H  H41  1  0.195825  0.488375  0.252009  1
  H  H42  1  0.804175  0.511625  0.747991  1
  H  H43  1  0.804175  0.988375  0.247991  1
  H  H44  1  0.195825  0.011625  0.752009  1
  H  H45  1  0.365838  0.459728  0.178697  1
  H  H46  1  0.634162  0.540272  0.821303  1
  H  H47  1  0.634162  0.959728  0.321303  1
  H  H48  1  0.365838  0.040272  0.678697  1
  H  H49  1  0.262213  0.370151  0.294476  1
  H  H50  1  0.737787  0.629849  0.705524  1
  H  H51  1  0.737787  0.870151  0.205524  1
  H  H52  1  0.262213  0.129849  0.794476  1
  H  H53  1  0.998014  0.477623  0.662086  1
  H  H54  1  0.001986  0.522377  0.337914  1
  H  H55  1  0.001986  0.977623  0.837914  1
  H  H56  1  0.998014  0.022377  0.162086  1
  H  H57  1  0.082530  0.380529  0.541688  1
  H  H58  1  0.917470  0.619471  0.458312  1
  H  H59  1  0.917470  0.880529  0.958312  1
  H  H60  1  0.082530  0.119471  0.041688  1
  H  H61  1  0.169985  0.491733  0.582239  1
  H  H62  1  0.830015  0.508267  0.417761  1
  H  H63  1  0.830015  0.991733  0.917761  1
  H  H64  1  0.169985  0.008267  0.082239  1
  H  H65  1  0.474421  0.166670  0.699586  1
  H  H66  1  0.525579  0.833330  0.300414  1
  H  H67  1  0.525579  0.666670  0.800414  1
  H  H68  1  0.474421  0.333330  0.199586  1
  H  H69  1  0.688937  0.091400  0.598940  1
  H  H70  1  0.311063  0.908600  0.401060  1
  H  H71  1  0.311063  0.591400  0.901060  1
  H  H72  1  0.688937  0.408600  0.098940  1
  H  H73  1  0.856414  0.366829  0.470956  1
  H  H74  1  0.143586  0.633171  0.529044  1
  H  H75  1  0.143586  0.866829  0.029044  1
  H  H76  1  0.856414  0.133171  0.970956  1
  H  H77  1  0.631990  0.442079  0.556811  1
  H  H78  1  0.368010  0.557921  0.443189  1
  H  H79  1  0.368010  0.942079  0.943189  1
  H  H80  1  0.631990  0.057921  0.056811  1
  O  O81  1  0.411151  0.443199  0.754122  1
  O  O82  1  0.588849  0.556801  0.245878  1
  O  O83  1  0.588849  0.943199  0.745878  1
  O  O84  1  0.411151  0.056801  0.254122  1
  O  O85  1  0.323879  0.295766  0.793196  1
  O  O86  1  0.676121  0.704234  0.206804  1
  O  O87  1  0.676121  0.795766  0.706804  1
  O  O88  1  0.323879  0.204234  0.293196  1
  O  O89  1  0.028293  0.229161  0.443940  1
  O  O90  1  0.971707  0.770839  0.556060  1
  O  O91  1  0.971707  0.729161  0.056060  1
  O  O92  1  0.028293  0.270839  0.943940  1
  O  O93  1  0.939891  0.090754  0.539019  1
  O  O94  1  0.060109  0.909246  0.460981  1
  O  O95  1  0.060109  0.590754  0.960981  1
  O  O96  1  0.939891  0.409246  0.039019  1
  Sn  Sn97  1  0.173529  0.393835  0.915576  1
  Sn  Sn98  1  0.826471  0.606165  0.084424  1
  Sn  Sn99  1  0.826471  0.893835  0.584424  1
  Sn  Sn100  1  0.173529  0.106165  0.415576  1
 
# Source:                            Grazulis_etal:NucleicAcidsRes.40.D420(2012)                                     
# Class:                             organometallic_Sn_molec_crystal                                                 
# Label:                             COD-2205979                                                                     
# Structure prediction method used:  NA                                                                              
# Number of atoms:                   100
# Number of atom types:                4
# Atom types:                         C  H  O Sn
# Dielectric constant, electronic:   3.25290E+00
# Dielectric constant, ionic:        2.00999E+00
# Dielectric constant, total:        5.26289E+00
# Band gap at the GGA level (eV):    2.72010E+00
# Band gap at the HSE06 level (eV):  3.63890E+00
# Atomization energy (eV/atom):     -5.89581E+00
# Volume of the unit cell (A^3):     9.24914E+02
