# generated using pymatgen
data_SnH22C18O
_symmetry_space_group_name_H-M   'P 1'
_cell_length_a   10.09814628
_cell_length_b   10.09814628
_cell_length_c   8.12242300
_cell_angle_alpha   90.00000000
_cell_angle_beta   90.00000000
_cell_angle_gamma   57.89446426
_symmetry_Int_Tables_number   1
_chemical_formula_structural   SnH22C18O
_chemical_formula_sum   'Sn2 H44 C36 O2'
_cell_volume   701.598276305
_cell_formula_units_Z   2
loop_
 _symmetry_equiv_pos_site_id
 _symmetry_equiv_pos_as_xyz
  1  'x, y, z'
loop_
 _atom_site_type_symbol
 _atom_site_label
 _atom_site_symmetry_multiplicity
 _atom_site_fract_x
 _atom_site_fract_y
 _atom_site_fract_z
 _atom_site_occupancy
  C  C1  1  0.218343  0.781657  0.383947  1
  C  C2  1  0.781657  0.218343  0.883947  1
  C  C3  1  0.227344  0.628679  0.428607  1
  C  C4  1  0.772656  0.371321  0.928607  1
  C  C5  1  0.628679  0.227344  0.928607  1
  C  C6  1  0.371321  0.772656  0.428607  1
  C  C7  1  0.367077  0.487006  0.341758  1
  C  C8  1  0.632923  0.512994  0.841758  1
  C  C9  1  0.487006  0.367077  0.841758  1
  C  C10  1  0.512994  0.632923  0.341758  1
  C  C11  1  0.522142  0.477858  0.374684  1
  C  C12  1  0.477858  0.522142  0.874684  1
  C  C13  1  0.035259  0.184847  0.566078  1
  C  C14  1  0.964741  0.815153  0.066078  1
  C  C15  1  0.184847  0.035259  0.066078  1
  C  C16  1  0.815153  0.964741  0.566078  1
  C  C17  1  0.937847  0.338487  0.509037  1
  C  C18  1  0.062153  0.661513  0.009037  1
  C  C19  1  0.338487  0.937847  0.009037  1
  C  C20  1  0.661513  0.062153  0.509037  1
  C  C21  1  0.967955  0.454527  0.550136  1
  C  C22  1  0.032045  0.545473  0.050136  1
  C  C23  1  0.454527  0.967955  0.050136  1
  C  C24  1  0.545473  0.032045  0.550136  1
  C  C25  1  0.095322  0.418748  0.650727  1
  C  C26  1  0.904678  0.581252  0.150727  1
  C  C27  1  0.418748  0.095322  0.150727  1
  C  C28  1  0.581252  0.904678  0.650727  1
  C  C29  1  0.192147  0.266844  0.709861  1
  C  C30  1  0.807853  0.733156  0.209861  1
  C  C31  1  0.266844  0.192147  0.209861  1
  C  C32  1  0.733156  0.807853  0.709861  1
  C  C33  1  0.162279  0.151208  0.666490  1
  C  C34  1  0.837721  0.848792  0.166490  1
  C  C35  1  0.151208  0.162279  0.166490  1
  C  C36  1  0.848792  0.837721  0.666490  1
  H  H37  1  0.291300  0.236672  0.788390  1
  H  H38  1  0.708700  0.763328  0.288390  1
  H  H39  1  0.236672  0.291300  0.288390  1
  H  H40  1  0.763328  0.708700  0.788390  1
  H  H41  1  0.238378  0.034159  0.712933  1
  H  H42  1  0.761622  0.965841  0.212933  1
  H  H43  1  0.034159  0.238378  0.212933  1
  H  H44  1  0.965841  0.761622  0.712933  1
  H  H45  1  0.795107  0.204893  0.267272  1
  H  H46  1  0.204893  0.795107  0.767272  1
  H  H47  1  0.200241  0.799759  0.251123  1
  H  H48  1  0.799759  0.200241  0.751123  1
  H  H49  1  0.119014  0.634737  0.395504  1
  H  H50  1  0.880986  0.365263  0.895504  1
  H  H51  1  0.634737  0.119014  0.895504  1
  H  H52  1  0.365263  0.880986  0.395504  1
  H  H53  1  0.241851  0.609807  0.562479  1
  H  H54  1  0.758149  0.390193  0.062479  1
  H  H55  1  0.609807  0.241851  0.062479  1
  H  H56  1  0.390193  0.758149  0.562479  1
  H  H57  1  0.376738  0.378720  0.383222  1
  H  H58  1  0.623262  0.621280  0.883222  1
  H  H59  1  0.378720  0.376738  0.883222  1
  H  H60  1  0.621280  0.623262  0.383222  1
  H  H61  1  0.343631  0.496312  0.208883  1
  H  H62  1  0.656369  0.503688  0.708883  1
  H  H63  1  0.496312  0.343631  0.708883  1
  H  H64  1  0.503688  0.656369  0.208883  1
  H  H65  1  0.557952  0.442048  0.502730  1
  H  H66  1  0.442048  0.557952  0.002730  1
  H  H67  1  0.614119  0.385881  0.296811  1
  H  H68  1  0.385881  0.614119  0.796811  1
  H  H69  1  0.838767  0.368939  0.430192  1
  H  H70  1  0.161233  0.631061  0.930192  1
  H  H71  1  0.368939  0.838767  0.930192  1
  H  H72  1  0.631061  0.161233  0.430192  1
  H  H73  1  0.892748  0.572252  0.504153  1
  H  H74  1  0.107252  0.427748  0.004153  1
  H  H75  1  0.572252  0.892748  0.004153  1
  H  H76  1  0.427748  0.107252  0.504153  1
  H  H77  1  0.118087  0.508814  0.683124  1
  H  H78  1  0.881913  0.491186  0.183124  1
  H  H79  1  0.508814  0.118087  0.183124  1
  H  H80  1  0.491186  0.881913  0.683124  1
  O  O81  1  0.894120  0.105880  0.257290  1
  O  O82  1  0.105880  0.894120  0.757290  1
  Sn  Sn83  1  0.010521  0.989479  0.495696  1
  Sn  Sn84  1  0.989479  0.010521  0.995696  1
 
# Source:                            Grazulis_etal:NucleicAcidsRes.40.D420(2012)                                     
# Class:                             organometallic_Sn_molec_crystal                                                 
# Label:                             COD-2218263                                                                     
# Structure prediction method used:  NA                                                                              
# Number of atoms:                    84
# Number of atom types:                4
# Atom types:                         C  H  O Sn
# Dielectric constant, electronic:   3.21165E+00
# Dielectric constant, ionic:        1.03585E+00
# Dielectric constant, total:        4.24750E+00
# Band gap at the GGA level (eV):    3.85580E+00
# Band gap at the HSE06 level (eV):  4.89610E+00
# Atomization energy (eV/atom):     -5.60744E+00
# Volume of the unit cell (A^3):     7.01598E+02
