# generated using pymatgen
data_SnH24(C9O)3
_symmetry_space_group_name_H-M   'P 1'
_cell_length_a   9.03095944
_cell_length_b   9.77276341
_cell_length_c   12.77490793
_cell_angle_alpha   78.35168691
_cell_angle_beta   90.53498450
_cell_angle_gamma   66.76760441
_symmetry_Int_Tables_number   1
_chemical_formula_structural   SnH24(C9O)3
_chemical_formula_sum   'Sn2 H48 C54 O6'
_cell_volume   1009.74709765
_cell_formula_units_Z   2
loop_
 _symmetry_equiv_pos_site_id
 _symmetry_equiv_pos_as_xyz
  1  'x, y, z'
loop_
 _atom_site_type_symbol
 _atom_site_label
 _atom_site_symmetry_multiplicity
 _atom_site_fract_x
 _atom_site_fract_y
 _atom_site_fract_z
 _atom_site_occupancy
  C  C1  1  0.373003  0.443379  0.788343  1
  C  C2  1  0.626997  0.556621  0.211657  1
  C  C3  1  0.243614  0.577666  0.799649  1
  C  C4  1  0.756386  0.422334  0.200351  1
  C  C5  1  0.083440  0.593561  0.784354  1
  C  C6  1  0.916560  0.406439  0.215646  1
  C  C7  1  0.051747  0.475495  0.756835  1
  C  C8  1  0.948253  0.524505  0.243165  1
  C  C9  1  0.179432  0.343492  0.742826  1
  C  C10  1  0.820568  0.656508  0.257174  1
  C  C11  1  0.339818  0.326646  0.758877  1
  C  C12  1  0.660182  0.673354  0.241123  1
  C  C13  1  0.653268  0.620949  0.833696  1
  C  C14  1  0.346732  0.379051  0.166304  1
  C  C15  1  0.611671  0.745815  0.745679  1
  C  C16  1  0.388329  0.254185  0.254321  1
  C  C17  1  0.623084  0.880390  0.757879  1
  C  C18  1  0.376916  0.119610  0.242121  1
  C  C19  1  0.674219  0.890951  0.858455  1
  C  C20  1  0.325781  0.109049  0.141545  1
  C  C21  1  0.723170  0.764884  0.945182  1
  C  C22  1  0.276830  0.235116  0.054818  1
  C  C23  1  0.713275  0.629763  0.932708  1
  C  C24  1  0.286725  0.370237  0.067292  1
  C  C25  1  0.742451  0.238963  0.967070  1
  C  C26  1  0.257549  0.761037  0.032930  1
  C  C27  1  0.662394  0.146434  0.010451  1
  C  C28  1  0.337606  0.853566  0.989549  1
  C  C29  1  0.733124  0.026876  0.100459  1
  C  C30  1  0.266876  0.973124  0.899541  1
  C  C31  1  0.886165  0.998397  0.146482  1
  C  C32  1  0.113835  0.001603  0.853518  1
  C  C33  1  0.965130  0.091873  0.105408  1
  C  C34  1  0.034870  0.908127  0.894592  1
  C  C35  1  0.894141  0.212143  0.015659  1
  C  C36  1  0.105859  0.787857  0.984341  1
  C  C37  1  0.738573  0.265799  0.658642  1
  C  C38  1  0.261427  0.734201  0.341358  1
  C  C39  1  0.794444  0.214781  0.555604  1
  C  C40  1  0.205556  0.785219  0.444396  1
  C  C41  1  0.677178  0.324868  0.459114  1
  C  C42  1  0.322822  0.675132  0.540886  1
  C  C43  1  0.969718  0.193731  0.545309  1
  C  C44  1  0.030282  0.806269  0.454691  1
  C  C45  1  0.011144  0.312088  0.492165  1
  C  C46  1  0.988856  0.687912  0.507835  1
  C  C47  1  0.173422  0.288134  0.484747  1
  C  C48  1  0.826578  0.711866  0.515253  1
  C  C49  1  0.296707  0.146679  0.532471  1
  C  C50  1  0.703293  0.853321  0.467529  1
  C  C51  1  0.256041  0.029183  0.587011  1
  C  C52  1  0.743959  0.970817  0.412989  1
  C  C53  1  0.093898  0.052009  0.592538  1
  C  C54  1  0.906102  0.947991  0.407462  1
  H  H55  1  0.928011  0.488447  0.743053  1
  H  H56  1  0.071989  0.511553  0.256947  1
  H  H57  1  0.154698  0.254449  0.717965  1
  H  H58  1  0.845302  0.745551  0.282035  1
  H  H59  1  0.437408  0.223804  0.747044  1
  H  H60  1  0.562592  0.776196  0.252956  1
  H  H61  1  0.571537  0.738367  0.667610  1
  H  H62  1  0.428463  0.261633  0.332390  1
  H  H63  1  0.591676  0.977277  0.690105  1
  H  H64  1  0.408324  0.022723  0.309895  1
  H  H65  1  0.677311  0.996880  0.868186  1
  H  H66  1  0.322689  0.003120  0.131814  1
  H  H67  1  0.766340  0.772108  0.022577  1
  H  H68  1  0.233660  0.227892  0.977423  1
  H  H69  1  0.750179  0.533376  0.000903  1
  H  H70  1  0.249821  0.466624  0.999097  1
  H  H71  1  0.544603  0.166642  0.974247  1
  H  H72  1  0.455397  0.833358  0.025753  1
  H  H73  1  0.669561  0.956771  0.133336  1
  H  H74  1  0.330439  0.043229  0.866664  1
  H  H75  1  0.945034  0.903359  0.214142  1
  H  H76  1  0.054966  0.096641  0.785858  1
  H  H77  1  0.082354  0.068695  0.143322  1
  H  H78  1  0.917646  0.931305  0.856678  1
  H  H79  1  0.957656  0.283412  0.984245  1
  H  H80  1  0.042344  0.716588  0.015755  1
  H  H81  1  0.788151  0.103623  0.564327  1
  H  H82  1  0.211849  0.896377  0.435673  1
  H  H83  1  0.677585  0.438759  0.445484  1
  H  H84  1  0.322415  0.561241  0.554516  1
  H  H85  1  0.712814  0.280412  0.386936  1
  H  H86  1  0.287186  0.719588  0.613064  1
  H  H87  1  0.917770  0.423193  0.456068  1
  H  H88  1  0.082230  0.576807  0.543932  1
  H  H89  1  0.202685  0.380625  0.442262  1
  H  H90  1  0.797315  0.619375  0.557738  1
  H  H91  1  0.422176  0.130366  0.528012  1
  H  H92  1  0.577824  0.869634  0.471988  1
  H  H93  1  0.349925  0.919747  0.625145  1
  H  H94  1  0.650075  0.080253  0.374855  1
  H  H95  1  0.062977  0.959471  0.633721  1
  H  H96  1  0.937023  0.040529  0.366279  1
  H  H97  1  0.436060  0.426629  0.435060  1
  H  H98  1  0.563940  0.573371  0.564940  1
  H  H99  1  0.266839  0.670207  0.820678  1
  H  H100  1  0.733161  0.329793  0.179322  1
  H  H101  1  0.983919  0.697533  0.792652  1
  H  H102  1  0.016081  0.302467  0.207348  1
  O  O103  1  0.715287  0.177908  0.736097  1
  O  O104  1  0.284713  0.822092  0.263903  1
  O  O105  1  0.716267  0.405791  0.665594  1
  O  O106  1  0.283733  0.594209  0.334406  1
  O  O107  1  0.516696  0.333480  0.481698  1
  O  O108  1  0.483304  0.666520  0.518302  1
  Sn  Sn109  1  0.619879  0.415636  0.825304  1
  Sn  Sn110  1  0.380121  0.584364  0.174696  1
 
# Source:                            Grazulis_etal:NucleicAcidsRes.40.D420(2012)                                     
# Class:                             organometallic_Sn_molec_crystal                                                 
# Label:                             COD-2219866                                                                     
# Structure prediction method used:  NA                                                                              
# Number of atoms:                   110
# Number of atom types:                4
# Atom types:                         C  H  O Sn
# Dielectric constant, electronic:   3.14808E+00
# Dielectric constant, ionic:        8.07182E-01
# Dielectric constant, total:        3.95526E+00
# Band gap at the GGA level (eV):    3.52280E+00
# Band gap at the HSE06 level (eV):  4.50080E+00
# Atomization energy (eV/atom):     -5.98187E+00
# Volume of the unit cell (A^3):     1.00975E+03
