# generated using pymatgen
data_SnH27C14O
_symmetry_space_group_name_H-M   'P 1'
_cell_length_a   6.38171738
_cell_length_b   9.34379369
_cell_length_c   11.91324127
_cell_angle_alpha   99.70874391
_cell_angle_beta   91.08646454
_cell_angle_gamma   102.58663670
_symmetry_Int_Tables_number   1
_chemical_formula_structural   SnH27C14O
_chemical_formula_sum   'Sn2 H54 C28 O2'
_cell_volume   682.231262058
_cell_formula_units_Z   2
loop_
 _symmetry_equiv_pos_site_id
 _symmetry_equiv_pos_as_xyz
  1  'x, y, z'
loop_
 _atom_site_type_symbol
 _atom_site_label
 _atom_site_symmetry_multiplicity
 _atom_site_fract_x
 _atom_site_fract_y
 _atom_site_fract_z
 _atom_site_occupancy
  C  C1  1  0.666655  0.122565  0.493456  1
  C  C2  1  0.333344  0.877435  0.506544  1
  C  C3  1  0.497086  0.142202  0.563333  1
  C  C4  1  0.502914  0.857799  0.436667  1
  C  C5  1  0.330750  0.018328  0.569306  1
  C  C6  1  0.669251  0.981672  0.430694  1
  C  C7  1  0.989789  0.919453  0.649167  1
  C  C8  1  0.010210  0.080547  0.350834  1
  C  C9  1  0.833259  0.976655  0.730470  1
  C  C10  1  0.166740  0.023344  0.269530  1
  C  C11  1  0.644947  0.850180  0.748751  1
  C  C12  1  0.355052  0.149820  0.251249  1
  C  C13  1  0.480879  0.901607  0.829546  1
  C  C14  1  0.519121  0.098394  0.170454  1
  C  C15  1  0.303547  0.770279  0.849484  1
  C  C16  1  0.696453  0.229720  0.150516  1
  C  C17  1  0.135435  0.814866  0.930401  1
  C  C18  1  0.864564  0.185134  0.069599  1
  C  C19  1  0.954085  0.681323  0.941135  1
  C  C20  1  0.045915  0.318678  0.058865  1
  C  C21  1  0.786648  0.720121  0.024446  1
  C  C22  1  0.213352  0.279880  0.975555  1
  C  C23  1  0.737609  0.519942  0.596778  1
  C  C24  1  0.262393  0.480059  0.403221  1
  C  C25  1  0.662881  0.323344  0.835856  1
  C  C26  1  0.337119  0.676656  0.164144  1
  C  C27  1  0.193321  0.404758  0.694904  1
  C  C28  1  0.806680  0.595241  0.305095  1
  H  H29  1  0.797595  0.217223  0.489159  1
  H  H30  1  0.202406  0.782777  0.510841  1
  H  H31  1  0.054304  0.833131  0.680603  1
  H  H32  1  0.945696  0.166869  0.319397  1
  H  H33  1  0.911806  0.872631  0.564112  1
  H  H34  1  0.088194  0.127369  0.435889  1
  H  H35  1  0.772449  0.062001  0.696120  1
  H  H36  1  0.227550  0.937999  0.303880  1
  H  H37  1  0.919893  0.030142  0.812308  1
  H  H38  1  0.080106  0.969858  0.187692  1
  H  H39  1  0.561615  0.795694  0.666256  1
  H  H40  1  0.438384  0.204306  0.333745  1
  H  H41  1  0.707826  0.765027  0.782901  1
  H  H42  1  0.292173  0.234973  0.217099  1
  H  H43  1  0.562672  0.959550  0.911673  1
  H  H44  1  0.437327  0.040449  0.088327  1
  H  H45  1  0.408568  0.982359  0.794662  1
  H  H46  1  0.591432  0.017640  0.205339  1
  H  H47  1  0.376502  0.688932  0.883702  1
  H  H48  1  0.623498  0.311067  0.116299  1
  H  H49  1  0.223099  0.711748  0.766996  1
  H  H50  1  0.776900  0.288251  0.233004  1
  H  H51  1  0.213102  0.864110  0.015007  1
  H  H52  1  0.786898  0.135890  0.984993  1
  H  H53  1  0.068822  0.901818  0.900860  1
  H  H54  1  0.931178  0.098182  0.099140  1
  H  H55  1  0.024961  0.595128  0.968488  1
  H  H56  1  0.975038  0.404872  0.031512  1
  H  H57  1  0.875236  0.632129  0.856596  1
  H  H58  1  0.124764  0.367871  0.143404  1
  H  H59  1  0.657154  0.622666  0.027080  1
  H  H60  1  0.342845  0.377335  0.972920  1
  H  H61  1  0.713931  0.807123  0.999969  1
  H  H62  1  0.286069  0.192878  0.000031  1
  H  H63  1  0.858604  0.760900  0.111256  1
  H  H64  1  0.141396  0.239101  0.888744  1
  H  H65  1  0.811672  0.460543  0.527216  1
  H  H66  1  0.188329  0.539458  0.472783  1
  H  H67  1  0.863598  0.585655  0.659395  1
  H  H68  1  0.136404  0.414346  0.340603  1
  H  H69  1  0.651417  0.593894  0.563320  1
  H  H70  1  0.348584  0.406107  0.436679  1
  H  H71  1  0.663521  0.415290  0.905419  1
  H  H72  1  0.336479  0.584710  0.094581  1
  H  H73  1  0.827602  0.314249  0.820177  1
  H  H74  1  0.172399  0.685751  0.179824  1
  H  H75  1  0.572376  0.220111  0.858351  1
  H  H76  1  0.427623  0.779890  0.141649  1
  H  H77  1  0.178391  0.492130  0.647331  1
  H  H78  1  0.821609  0.507869  0.352668  1
  H  H79  1  0.168720  0.440813  0.784602  1
  H  H80  1  0.831282  0.559187  0.215398  1
  H  H81  1  0.075430  0.302349  0.660796  1
  H  H82  1  0.924572  0.697651  0.339204  1
  O  O83  1  0.167154  0.045262  0.641067  1
  O  O84  1  0.832845  0.954737  0.358933  1
  Sn  Sn85  1  0.513766  0.355678  0.676624  1
  Sn  Sn86  1  0.486235  0.644322  0.323376  1
 
# Source:                            Grazulis_etal:NucleicAcidsRes.40.D420(2012)                                     
# Class:                             organometallic_Sn_molec_crystal                                                 
# Label:                             COD-4073109                                                                     
# Structure prediction method used:  NA                                                                              
# Number of atoms:                    86
# Number of atom types:                4
# Atom types:                         C  H  O Sn
# Dielectric constant, electronic:   2.85473E+00
# Dielectric constant, ionic:        3.13542E-01
# Dielectric constant, total:        3.16827E+00
# Band gap at the GGA level (eV):    3.24930E+00
# Band gap at the HSE06 level (eV):  4.35950E+00
# Atomization energy (eV/atom):     -5.11638E+00
# Volume of the unit cell (A^3):     6.82231E+02
