# generated using pymatgen
data_SnH31C20O
_symmetry_space_group_name_H-M   'P 1'
_cell_length_a   7.42902654
_cell_length_b   10.69439703
_cell_length_c   12.42053839
_cell_angle_alpha   112.98513973
_cell_angle_beta   103.76348616
_cell_angle_gamma   91.71473362
_symmetry_Int_Tables_number   1
_chemical_formula_structural   SnH31C20O
_chemical_formula_sum   'Sn2 H62 C40 O2'
_cell_volume   874.003576207
_cell_formula_units_Z   2
loop_
 _symmetry_equiv_pos_site_id
 _symmetry_equiv_pos_as_xyz
  1  'x, y, z'
loop_
 _atom_site_type_symbol
 _atom_site_label
 _atom_site_symmetry_multiplicity
 _atom_site_fract_x
 _atom_site_fract_y
 _atom_site_fract_z
 _atom_site_occupancy
  C  C1  1  0.937062  0.540414  0.901553  1
  C  C2  1  0.062938  0.459586  0.098447  1
  C  C3  1  0.085949  0.463051  0.906889  1
  C  C4  1  0.914051  0.536949  0.093111  1
  C  C5  1  0.877339  0.578714  0.797084  1
  C  C6  1  0.122661  0.421286  0.202916  1
  C  C7  1  0.851008  0.576994  0.997759  1
  C  C8  1  0.148992  0.423006  0.002241  1
  C  C9  1  0.762085  0.738747  0.710447  1
  C  C10  1  0.237915  0.261253  0.289553  1
  C  C11  1  0.878943  0.486326  0.679539  1
  C  C12  1  0.121057  0.513674  0.320461  1
  C  C13  1  0.603101  0.682561  0.085136  1
  C  C14  1  0.396899  0.317439  0.914864  1
  C  C15  1  0.818385  0.706509  0.810603  1
  C  C16  1  0.181615  0.293491  0.189397  1
  C  C17  1  0.177205  0.881816  0.114901  1
  C  C18  1  0.822795  0.118184  0.885099  1
  C  C19  1  0.821159  0.519422  0.579402  1
  C  C20  1  0.178841  0.480578  0.420598  1
  C  C21  1  0.444089  0.758685  0.053781  1
  C  C22  1  0.555911  0.241315  0.946219  1
  C  C23  1  0.760665  0.646808  0.593149  1
  C  C24  1  0.239335  0.353192  0.406851  1
  C  C25  1  0.053200  0.925309  0.202191  1
  C  C26  1  0.946800  0.074691  0.797809  1
  C  C27  1  0.891556  0.995490  0.158035  1
  C  C28  1  0.108444  0.004510  0.841965  1
  C  C29  1  0.337319  0.806700  0.151288  1
  C  C30  1  0.662681  0.193300  0.848712  1
  C  C31  1  0.790533  0.072907  0.253836  1
  C  C32  1  0.209467  0.927093  0.746164  1
  C  C33  1  0.649780  0.155811  0.209541  1
  C  C34  1  0.350220  0.844189  0.790459  1
  C  C35  1  0.600266  0.502778  0.285993  1
  C  C36  1  0.399734  0.497222  0.714007  1
  C  C37  1  0.416723  0.818435  0.480000  1
  C  C38  1  0.583277  0.181565  0.520000  1
  C  C39  1  0.866937  0.845861  0.439184  1
  C  C40  1  0.133063  0.154139  0.560816  1
  H  H41  1  0.155246  0.436882  0.835318  1
  H  H42  1  0.844754  0.563118  0.164682  1
  H  H43  1  0.715268  0.837569  0.724596  1
  H  H44  1  0.284732  0.162431  0.275404  1
  H  H45  1  0.919967  0.385929  0.666075  1
  H  H46  1  0.080033  0.614071  0.333925  1
  H  H47  1  0.701257  0.745568  0.173354  1
  H  H48  1  0.298743  0.254432  0.826646  1
  H  H49  1  0.550326  0.587726  0.088295  1
  H  H50  1  0.449674  0.412274  0.911705  1
  H  H51  1  0.813139  0.779761  0.898808  1
  H  H52  1  0.186861  0.220239  0.101192  1
  H  H53  1  0.235976  0.972532  0.107011  1
  H  H54  1  0.764024  0.027468  0.892989  1
  H  H55  1  0.090891  0.815235  0.023675  1
  H  H56  1  0.909109  0.184765  0.976325  1
  H  H57  1  0.821453  0.443900  0.490037  1
  H  H58  1  0.178547  0.556100  0.509963  1
  H  H59  1  0.347395  0.691534  0.966340  1
  H  H60  1  0.652605  0.308466  0.033660  1
  H  H61  1  0.499791  0.847131  0.042113  1
  H  H62  1  0.500209  0.152869  0.957887  1
  H  H63  1  0.138528  0.995158  0.293149  1
  H  H64  1  0.861472  0.004842  0.706851  1
  H  H65  1  0.998921  0.835171  0.212442  1
  H  H66  1  0.001079  0.164829  0.787558  1
  H  H67  1  0.946594  0.068697  0.127972  1
  H  H68  1  0.053406  0.931303  0.872028  1
  H  H69  1  0.790665  0.918805  0.077241  1
  H  H70  1  0.209335  0.081195  0.922759  1
  H  H71  1  0.280880  0.718262  0.163321  1
  H  H72  1  0.719120  0.281738  0.836679  1
  H  H73  1  0.433082  0.875002  0.239523  1
  H  H74  1  0.566918  0.124998  0.760477  1
  H  H75  1  0.894602  0.143047  0.336777  1
  H  H76  1  0.105398  0.856953  0.663223  1
  H  H77  1  0.719901  0.001609  0.279600  1
  H  H78  1  0.280099  0.998391  0.720400  1
  H  H79  1  0.582974  0.214286  0.279421  1
  H  H80  1  0.417026  0.785714  0.720579  1
  H  H81  1  0.538905  0.089421  0.128628  1
  H  H82  1  0.461095  0.910579  0.871372  1
  H  H83  1  0.720181  0.228599  0.185609  1
  H  H84  1  0.279819  0.771401  0.814391  1
  H  H85  1  0.510980  0.500738  0.202077  1
  H  H86  1  0.489020  0.499262  0.797923  1
  H  H87  1  0.533169  0.429661  0.310314  1
  H  H88  1  0.466831  0.570339  0.689686  1
  H  H89  1  0.735764  0.473131  0.273380  1
  H  H90  1  0.264236  0.526869  0.726620  1
  H  H91  1  0.329046  0.822738  0.397658  1
  H  H92  1  0.670954  0.177262  0.602342  1
  H  H93  1  0.475596  0.922742  0.546506  1
  H  H94  1  0.524404  0.077258  0.453494  1
  H  H95  1  0.332135  0.770597  0.517933  1
  H  H96  1  0.667865  0.229403  0.482067  1
  H  H97  1  0.832094  0.859869  0.354697  1
  H  H98  1  0.167906  0.140131  0.645303  1
  H  H99  1  0.003655  0.810480  0.451625  1
  H  H100  1  0.996345  0.189520  0.548375  1
  H  H101  1  0.874523  0.944677  0.513989  1
  H  H102  1  0.125477  0.055323  0.486011  1
  O  O103  1  0.700606  0.649917  0.990682  1
  O  O104  1  0.299394  0.350083  0.009318  1
  Sn  Sn105  1  0.651258  0.701672  0.440215  1
  Sn  Sn106  1  0.348742  0.298328  0.559785  1
 
# Source:                            Grazulis_etal:NucleicAcidsRes.40.D420(2012)                                     
# Class:                             organometallic_Sn_molec_crystal                                                 
# Label:                             COD-4073112                                                                     
# Structure prediction method used:  NA                                                                              
# Number of atoms:                   106
# Number of atom types:                4
# Atom types:                         C  H  O Sn
# Dielectric constant, electronic:   3.02500E+00
# Dielectric constant, ionic:        2.72633E-01
# Dielectric constant, total:        3.29763E+00
# Band gap at the GGA level (eV):    2.68290E+00
# Band gap at the HSE06 level (eV):  3.62260E+00
# Atomization energy (eV/atom):     -5.35201E+00
# Volume of the unit cell (A^3):     8.74004E+02
