# generated using pymatgen
data_SnH27C20O
_symmetry_space_group_name_H-M   'P 1'
_cell_length_a   7.73200030
_cell_length_b   11.31460467
_cell_length_c   11.09653579
_cell_angle_alpha   113.23120733
_cell_angle_beta   93.74402960
_cell_angle_gamma   96.94342668
_symmetry_Int_Tables_number   1
_chemical_formula_structural   SnH27C20O
_chemical_formula_sum   'Sn2 H54 C40 O2'
_cell_volume   878.704121121
_cell_formula_units_Z   2
loop_
 _symmetry_equiv_pos_site_id
 _symmetry_equiv_pos_as_xyz
  1  'x, y, z'
loop_
 _atom_site_type_symbol
 _atom_site_label
 _atom_site_symmetry_multiplicity
 _atom_site_fract_x
 _atom_site_fract_y
 _atom_site_fract_z
 _atom_site_occupancy
  C  C1  1  0.997568  0.368366  0.970924  1
  C  C2  1  0.002432  0.631634  0.029076  1
  C  C3  1  0.850233  0.412202  0.933324  1
  C  C4  1  0.149767  0.587798  0.066676  1
  C  C5  1  0.120638  0.180510  0.972039  1
  C  C6  1  0.879362  0.819490  0.027961  1
  C  C7  1  0.090728  0.034475  0.890032  1
  C  C8  1  0.909272  0.965525  0.109968  1
  C  C9  1  0.414671  0.348985  0.810922  1
  C  C10  1  0.585329  0.651015  0.189078  1
  C  C11  1  0.850400  0.543452  0.960352  1
  C  C12  1  0.149600  0.456548  0.039648  1
  C  C13  1  0.135990  0.991121  0.748062  1
  C  C14  1  0.864010  0.008879  0.251938  1
  C  C15  1  0.652188  0.099596  0.691543  1
  C  C16  1  0.347812  0.900404  0.308457  1
  C  C17  1  0.107115  0.841152  0.681453  1
  C  C18  1  0.892885  0.158848  0.318547  1
  C  C19  1  0.561247  0.207302  0.012779  1
  C  C20  1  0.438753  0.792698  0.987221  1
  C  C21  1  0.187321  0.783000  0.551511  1
  C  C22  1  0.812679  0.217000  0.448489  1
  C  C23  1  0.215112  0.641971  0.518833  1
  C  C24  1  0.784888  0.358029  0.481167  1
  C  C25  1  0.312472  0.586048  0.397858  1
  C  C26  1  0.687528  0.413952  0.602142  1
  C  C27  1  0.318701  0.439804  0.351351  1
  C  C28  1  0.681299  0.560196  0.648649  1
  C  C29  1  0.507186  0.173609  0.096748  1
  C  C30  1  0.492814  0.826391  0.903252  1
  C  C31  1  0.309533  0.401047  0.771008  1
  C  C32  1  0.690467  0.598953  0.228992  1
  C  C33  1  0.692929  0.004729  0.605325  1
  C  C34  1  0.307071  0.995271  0.394675  1
  C  C35  1  0.431038  0.127863  0.190386  1
  C  C36  1  0.568962  0.872137  0.809614  1
  C  C37  1  0.180019  0.459410  0.720962  1
  C  C38  1  0.819981  0.540590  0.279038  1
  C  C39  1  0.736723  0.889570  0.500873  1
  C  C40  1  0.263277  0.110430  0.499127  1
  H  H41  1  0.121530  0.204321  0.078157  1
  H  H42  1  0.878470  0.795679  0.921843  1
  H  H43  1  0.244049  0.226268  0.956314  1
  H  H44  1  0.755951  0.773732  0.043686  1
  H  H45  1  0.953277  0.995591  0.887654  1
  H  H46  1  0.046723  0.004409  0.112346  1
  H  H47  1  0.170962  0.990317  0.940812  1
  H  H48  1  0.829038  0.009683  0.059188  1
  H  H49  1  0.733742  0.574908  0.931499  1
  H  H50  1  0.266258  0.425092  0.068501  1
  H  H51  1  0.274316  0.028839  0.749409  1
  H  H52  1  0.725684  0.971161  0.250591  1
  H  H53  1  0.056838  0.031887  0.692928  1
  H  H54  1  0.943162  0.968113  0.307072  1
  H  H55  1  0.165187  0.806218  0.752018  1
  H  H56  1  0.834813  0.193782  0.247982  1
  H  H57  1  0.965812  0.803280  0.665258  1
  H  H58  1  0.034188  0.196720  0.334742  1
  H  H59  1  0.314066  0.842474  0.558692  1
  H  H60  1  0.685934  0.157526  0.441308  1
  H  H61  1  0.104835  0.787165  0.469162  1
  H  H62  1  0.895165  0.212835  0.530838  1
  H  H63  1  0.290217  0.638646  0.604686  1
  H  H64  1  0.709783  0.361354  0.395314  1
  H  H65  1  0.087419  0.580394  0.503684  1
  H  H66  1  0.912581  0.419606  0.496316  1
  H  H67  1  0.446392  0.640310  0.420144  1
  H  H68  1  0.553608  0.359690  0.579856  1
  H  H69  1  0.248993  0.603047  0.316183  1
  H  H70  1  0.751007  0.396953  0.683817  1
  H  H71  1  0.398581  0.406570  0.269945  1
  H  H72  1  0.601419  0.593430  0.730055  1
  H  H73  1  0.186059  0.383023  0.316605  1
  H  H74  1  0.813941  0.616977  0.683395  1
  H  H75  1  0.375017  0.417224  0.431709  1
  H  H76  1  0.624983  0.582776  0.568291  1
  H  H77  1  0.332369  0.186009  0.238753  1
  H  H78  1  0.667631  0.813991  0.761247  1
  H  H79  1  0.529838  0.132226  0.267513  1
  H  H80  1  0.470162  0.867774  0.732487  1
  H  H81  1  0.367453  0.026520  0.139179  1
  H  H82  1  0.632547  0.973480  0.860821  1
  H  H83  1  0.181222  0.431510  0.614590  1
  H  H84  1  0.818778  0.568490  0.385410  1
  H  H85  1  0.207373  0.566104  0.770278  1
  H  H86  1  0.792627  0.433896  0.229722  1
  H  H87  1  0.047800  0.426872  0.737315  1
  H  H88  1  0.952200  0.573128  0.262685  1
  H  H89  1  0.874963  0.903309  0.485176  1
  H  H90  1  0.125037  0.096691  0.514824  1
  H  H91  1  0.656506  0.867009  0.407723  1
  H  H92  1  0.343494  0.132991  0.592277  1
  H  H93  1  0.713095  0.804116  0.524869  1
  H  H94  1  0.286905  0.195884  0.475131  1
  O  O95  1  0.977101  0.234167  0.930990  1
  O  O96  1  0.022899  0.765833  0.069010  1
  Sn  Sn97  1  0.622983  0.264919  0.859143  1
  Sn  Sn98  1  0.377017  0.735081  0.140857  1
 
# Source:                            Grazulis_etal:NucleicAcidsRes.40.D420(2012)                                     
# Class:                             organometallic_Sn_molec_crystal                                                 
# Label:                             COD-4073116                                                                     
# Structure prediction method used:  NA                                                                              
# Number of atoms:                    98
# Number of atom types:                4
# Atom types:                         C  H  O Sn
# Dielectric constant, electronic:   2.81923E+00
# Dielectric constant, ionic:        6.83050E-01
# Dielectric constant, total:        3.50228E+00
# Band gap at the GGA level (eV):    3.14680E+00
# Band gap at the HSE06 level (eV):  4.24160E+00
# Atomization energy (eV/atom):     -5.40716E+00
# Volume of the unit cell (A^3):     8.78704E+02
