# generated using pymatgen
data_SnH10(C5O2)2
_symmetry_space_group_name_H-M   'P 1'
_cell_length_a   8.87092730
_cell_length_b   10.44150000
_cell_length_c   10.57761054
_cell_angle_alpha   90.00000000
_cell_angle_beta   101.30449048
_cell_angle_gamma   90.00000000
_symmetry_Int_Tables_number   1
_chemical_formula_structural   SnH10(C5O2)2
_chemical_formula_sum   'Sn4 H40 C40 O16'
_cell_volume   960.751483411
_cell_formula_units_Z   4
loop_
 _symmetry_equiv_pos_site_id
 _symmetry_equiv_pos_as_xyz
  1  'x, y, z'
loop_
 _atom_site_type_symbol
 _atom_site_label
 _atom_site_symmetry_multiplicity
 _atom_site_fract_x
 _atom_site_fract_y
 _atom_site_fract_z
 _atom_site_occupancy
  C  C1  1  0.727788  0.981131  0.880502  1
  C  C2  1  0.272212  0.018869  0.119498  1
  C  C3  1  0.272212  0.481131  0.619498  1
  C  C4  1  0.727788  0.518869  0.380502  1
  C  C5  1  0.791771  0.908469  0.781725  1
  C  C6  1  0.208229  0.091531  0.218275  1
  C  C7  1  0.208229  0.408469  0.718275  1
  C  C8  1  0.791771  0.591531  0.281725  1
  C  C9  1  0.811103  0.966773  0.665782  1
  C  C10  1  0.188897  0.033227  0.334218  1
  C  C11  1  0.188897  0.466773  0.834218  1
  C  C12  1  0.811103  0.533227  0.165782  1
  C  C13  1  0.887615  0.900618  0.582324  1
  C  C14  1  0.112385  0.099382  0.417676  1
  C  C15  1  0.112385  0.400618  0.917676  1
  C  C16  1  0.887615  0.599382  0.082324  1
  C  C17  1  0.738431  0.408001  0.126189  1
  C  C18  1  0.261569  0.591999  0.873811  1
  C  C19  1  0.261569  0.908001  0.373811  1
  C  C20  1  0.738431  0.091999  0.626189  1
  C  C21  1  0.839797  0.782565  0.807474  1
  C  C22  1  0.160203  0.217435  0.192526  1
  C  C23  1  0.160203  0.282565  0.692526  1
  C  C24  1  0.839797  0.717435  0.307474  1
  C  C25  1  0.919135  0.718348  0.724986  1
  C  C26  1  0.080865  0.281652  0.275014  1
  C  C27  1  0.080865  0.218348  0.775014  1
  C  C28  1  0.919135  0.781652  0.224986  1
  C  C29  1  0.945331  0.777755  0.613638  1
  C  C30  1  0.054669  0.222245  0.386362  1
  C  C31  1  0.054669  0.277755  0.886362  1
  C  C32  1  0.945331  0.722245  0.113638  1
  C  C33  1  0.474239  0.249699  0.889571  1
  C  C34  1  0.525761  0.750301  0.110429  1
  C  C35  1  0.525761  0.749699  0.610429  1
  C  C36  1  0.474239  0.250301  0.389571  1
  C  C37  1  0.735656  0.075899  0.224688  1
  C  C38  1  0.264344  0.924101  0.775312  1
  C  C39  1  0.264344  0.575899  0.275312  1
  C  C40  1  0.735656  0.424101  0.724688  1
  H  H41  1  0.899174  0.945393  0.492451  1
  H  H42  1  0.100826  0.054607  0.507549  1
  H  H43  1  0.100826  0.445393  0.007549  1
  H  H44  1  0.899174  0.554607  0.992451  1
  H  H45  1  0.814443  0.735968  0.891695  1
  H  H46  1  0.185557  0.264032  0.108305  1
  H  H47  1  0.185557  0.235968  0.608305  1
  H  H48  1  0.814443  0.764032  0.391695  1
  H  H49  1  0.960718  0.622363  0.747629  1
  H  H50  1  0.039282  0.377637  0.252371  1
  H  H51  1  0.039282  0.122363  0.752371  1
  H  H52  1  0.960718  0.877637  0.247629  1
  H  H53  1  0.008938  0.728101  0.551778  1
  H  H54  1  0.991062  0.271899  0.448222  1
  H  H55  1  0.991062  0.228101  0.948222  1
  H  H56  1  0.008938  0.771899  0.051778  1
  H  H57  1  0.513588  0.346045  0.873180  1
  H  H58  1  0.486412  0.653955  0.126820  1
  H  H59  1  0.486412  0.846045  0.626820  1
  H  H60  1  0.513588  0.153955  0.373180  1
  H  H61  1  0.366246  0.252349  0.922780  1
  H  H62  1  0.633754  0.747651  0.077220  1
  H  H63  1  0.633754  0.752349  0.577220  1
  H  H64  1  0.366246  0.247651  0.422780  1
  H  H65  1  0.467419  0.190436  0.804221  1
  H  H66  1  0.532581  0.809564  0.195779  1
  H  H67  1  0.532581  0.690436  0.695779  1
  H  H68  1  0.467419  0.309564  0.304221  1
  H  H69  1  0.850654  0.046588  0.215478  1
  H  H70  1  0.149346  0.953412  0.784522  1
  H  H71  1  0.149346  0.546588  0.284522  1
  H  H72  1  0.850654  0.453412  0.715478  1
  H  H73  1  0.664493  0.994057  0.238494  1
  H  H74  1  0.335507  0.005943  0.761506  1
  H  H75  1  0.335507  0.494057  0.261506  1
  H  H76  1  0.664493  0.505943  0.738494  1
  H  H77  1  0.741816  0.145182  0.302282  1
  H  H78  1  0.258184  0.854818  0.697718  1
  H  H79  1  0.258184  0.645182  0.197718  1
  H  H80  1  0.741816  0.354818  0.802282  1
  O  O81  1  0.805462  0.331941  0.056819  1
  O  O82  1  0.194538  0.668059  0.943181  1
  O  O83  1  0.194538  0.831941  0.443181  1
  O  O84  1  0.805462  0.168059  0.556819  1
  O  O85  1  0.613992  0.940120  0.925123  1
  O  O86  1  0.386008  0.059880  0.074877  1
  O  O87  1  0.386008  0.440120  0.574877  1
  O  O88  1  0.613992  0.559880  0.425123  1
  O  O89  1  0.612334  0.375858  0.158088  1
  O  O90  1  0.387666  0.624142  0.841912  1
  O  O91  1  0.387666  0.875858  0.341912  1
  O  O92  1  0.612334  0.124142  0.658088  1
  O  O93  1  0.796662  0.086583  0.922978  1
  O  O94  1  0.203338  0.913417  0.077022  1
  O  O95  1  0.203338  0.586583  0.577022  1
  O  O96  1  0.796662  0.413417  0.422978  1
  Sn  Sn97  1  0.638670  0.169053  0.044894  1
  Sn  Sn98  1  0.361330  0.830947  0.955106  1
  Sn  Sn99  1  0.361330  0.669053  0.455106  1
  Sn  Sn100  1  0.638670  0.330947  0.544894  1
 
# Source:                            Grazulis_etal:NucleicAcidsRes.40.D420(2012)                                     
# Class:                             organometallic_Sn_molec_crystal                                                 
# Label:                             COD-4313756                                                                     
# Structure prediction method used:  NA                                                                              
# Number of atoms:                   100
# Number of atom types:                4
# Atom types:                         C  H  O Sn
# Dielectric constant, electronic:   3.11806E+00
# Dielectric constant, ionic:        1.69284E+00
# Dielectric constant, total:        4.81089E+00
# Band gap at the GGA level (eV):    3.50790E+00
# Band gap at the HSE06 level (eV):  4.65900E+00
# Atomization energy (eV/atom):     -5.88839E+00
# Volume of the unit cell (A^3):     9.60751E+02
