# generated using pymatgen
data_SnH10(C7O2)2
_symmetry_space_group_name_H-M   'P 1'
_cell_length_a   7.03229818
_cell_length_b   7.22060973
_cell_length_c   11.26695019
_cell_angle_alpha   90.00023046
_cell_angle_beta   97.15629811
_cell_angle_gamma   99.74313008
_symmetry_Int_Tables_number   1
_chemical_formula_structural   SnH10(C7O2)2
_chemical_formula_sum   'Sn2 H20 C28 O8'
_cell_volume   559.332967045
_cell_formula_units_Z   2
loop_
 _symmetry_equiv_pos_site_id
 _symmetry_equiv_pos_as_xyz
  1  'x, y, z'
loop_
 _atom_site_type_symbol
 _atom_site_label
 _atom_site_symmetry_multiplicity
 _atom_site_fract_x
 _atom_site_fract_y
 _atom_site_fract_z
 _atom_site_occupancy
  C  C1  1  0.317530  0.414867  0.586489  1
  C  C2  1  0.682470  0.585133  0.413511  1
  C  C3  1  0.525645  0.242683  0.985153  1
  C  C4  1  0.474355  0.757317  0.014847  1
  C  C5  1  0.390560  0.767601  0.574306  1
  C  C6  1  0.609440  0.232399  0.425694  1
  C  C7  1  0.450302  0.167427  0.087100  1
  C  C8  1  0.549698  0.832573  0.912900  1
  C  C9  1  0.093499  0.207733  0.049488  1
  C  C10  1  0.906501  0.792267  0.950512  1
  C  C11  1  0.100886  0.320320  0.946670  1
  C  C12  1  0.899114  0.679680  0.053330  1
  C  C13  1  0.201525  0.667037  0.373202  1
  C  C14  1  0.798475  0.332963  0.626798  1
  C  C15  1  0.399767  0.594802  0.628249  1
  C  C16  1  0.600233  0.405198  0.371751  1
  C  C17  1  0.198766  0.351182  0.478992  1
  C  C18  1  0.801234  0.648818  0.521008  1
  C  C19  1  0.304114  0.796862  0.459305  1
  C  C20  1  0.695886  0.203138  0.540695  1
  C  C21  1  0.143476  0.470931  0.378655  1
  C  C22  1  0.856524  0.529069  0.621345  1
  C  C23  1  0.262239  0.146332  0.120323  1
  C  C24  1  0.737761  0.853668  0.879677  1
  C  C25  1  0.437809  0.332865  0.890135  1
  C  C26  1  0.562191  0.667135  0.109865  1
  C  C27  1  0.249004  0.374013  0.876821  1
  C  C28  1  0.750996  0.625987  0.123179  1
  H  H29  1  0.346195  0.300168  0.644549  1
  H  H30  1  0.653805  0.699832  0.355451  1
  H  H31  1  0.676334  0.229940  0.982752  1
  H  H32  1  0.323666  0.770060  0.017248  1
  H  H33  1  0.466369  0.890132  0.626297  1
  H  H34  1  0.533631  0.109868  0.373703  1
  H  H35  1  0.551066  0.105806  0.149932  1
  H  H36  1  0.448934  0.894194  0.850068  1
  H  H37  1  0.963709  0.365893  0.915937  1
  H  H38  1  0.036291  0.634107  0.084063  1
  H  H39  1  0.152780  0.724900  0.287895  1
  H  H40  1  0.847220  0.275100  0.712105  1
  H  H41  1  0.484500  0.603658  0.716086  1
  H  H42  1  0.515500  0.396342  0.283914  1
  H  H43  1  0.316018  0.941857  0.432943  1
  H  H44  1  0.683982  0.058143  0.567057  1
  H  H45  1  0.529698  0.382340  0.821949  1
  H  H46  1  0.470302  0.617660  0.178051  1
  H  H47  1  0.208126  0.458258  0.801334  1
  H  H48  1  0.791874  0.541742  0.198666  1
  O  O49  1  0.231060  0.061246  0.221497  1
  O  O50  1  0.768940  0.938754  0.778503  1
  O  O51  1  0.926003  0.155861  0.087278  1
  O  O52  1  0.073997  0.844139  0.912722  1
  O  O53  1  0.134816  0.171625  0.464973  1
  O  O54  1  0.865184  0.828375  0.535027  1
  O  O55  1  0.033794  0.385002  0.285760  1
  O  O56  1  0.966206  0.614998  0.714240  1
  Sn  Sn57  1  0.941511  0.069690  0.286116  1
  Sn  Sn58  1  0.058489  0.930310  0.713884  1
 
# Source:                            Grazulis_etal:NucleicAcidsRes.40.D420(2012)                                     
# Class:                             organometallic_Sn_molec_crystal                                                 
# Label:                             COD-4320053                                                                     
# Structure prediction method used:  NA                                                                              
# Number of atoms:                    58
# Number of atom types:                4
# Atom types:                         C  H  O Sn
# Dielectric constant, electronic:   3.90272E+00
# Dielectric constant, ionic:        1.47819E+00
# Dielectric constant, total:        5.38091E+00
# Band gap at the GGA level (eV):    1.98790E+00
# Band gap at the HSE06 level (eV):  2.82070E+00
# Atomization energy (eV/atom):     -6.18881E+00
# Volume of the unit cell (A^3):     5.59333E+02
