# generated using pymatgen
data_SnH4(C2O)4
_symmetry_space_group_name_H-M   'P 1'
_cell_length_a   4.46010964
_cell_length_b   7.53540500
_cell_length_c   11.22023046
_cell_angle_alpha   92.14331137
_cell_angle_beta   101.46575316
_cell_angle_gamma   107.21142228
_symmetry_Int_Tables_number   1
_chemical_formula_structural   SnH4(C2O)4
_chemical_formula_sum   'Sn2 H8 C16 O8'
_cell_volume   351.152998487
_cell_formula_units_Z   2
loop_
 _symmetry_equiv_pos_site_id
 _symmetry_equiv_pos_as_xyz
  1  'x, y, z'
loop_
 _atom_site_type_symbol
 _atom_site_label
 _atom_site_symmetry_multiplicity
 _atom_site_fract_x
 _atom_site_fract_y
 _atom_site_fract_z
 _atom_site_occupancy
  C  C1  1  0.789762  0.125490  0.160352  1
  C  C2  1  0.503982  0.874511  0.839656  1
  C  C3  1  0.099223  0.169898  0.252865  1
  C  C4  1  0.676525  0.830103  0.747144  1
  C  C5  1  0.170099  0.025415  0.316274  1
  C  C6  1  0.828475  0.974590  0.683741  1
  C  C7  1  0.460514  0.057479  0.399964  1
  C  C8  1  0.003119  0.942524  0.600047  1
  C  C9  1  0.677718  0.237635  0.426705  1
  C  C10  1  0.013428  0.762366  0.573298  1
  C  C11  1  0.605738  0.384235  0.367158  1
  C  C12  1  0.854396  0.615764  0.632838  1
  C  C13  1  0.322035  0.351316  0.278767  1
  C  C14  1  0.692014  0.648684  0.721231  1
  C  C15  1  0.273649  0.515012  0.215221  1
  C  C16  1  0.543491  0.484974  0.784763  1
  H  H17  1  0.994740  0.887996  0.299395  1
  H  H18  1  0.807410  0.112011  0.700622  1
  H  H19  1  0.516779  0.941694  0.442699  1
  H  H20  1  0.132430  0.058314  0.557320  1
  H  H21  1  0.905490  0.264514  0.491731  1
  H  H22  1  0.149286  0.735485  0.508269  1
  H  H23  1  0.777477  0.522550  0.383423  1
  H  H24  1  0.871552  0.477446  0.616568  1
  O  O25  1  0.321881  0.529375  0.103254  1
  O  O26  1  0.689258  0.470636  0.896749  1
  O  O27  1  0.202469  0.639605  0.270251  1
  O  O28  1  0.292788  0.360346  0.729704  1
  O  O29  1  0.716735  0.263020  0.111230  1
  O  O30  1  0.342512  0.736983  0.888763  1
  O  O31  1  0.622565  0.953596  0.133956  1
  O  O32  1  0.535114  0.046409  0.866065  1
  Sn  Sn33  1  0.097540  0.759007  0.047048  1
  Sn  Sn34  1  0.291506  0.241014  0.952932  1
 
# Source:                            Grazulis_etal:NucleicAcidsRes.40.D420(2012)                                     
# Class:                             organometallic_Sn_molec_crystal                                                 
# Label:                             COD-4501864                                                                     
# Structure prediction method used:  NA                                                                              
# Number of atoms:                    34
# Number of atom types:                4
# Atom types:                         C  H  O Sn
# Dielectric constant, electronic:   3.73137E+00
# Dielectric constant, ionic:        2.55425E+00
# Dielectric constant, total:        6.28562E+00
# Band gap at the GGA level (eV):    2.75080E+00
# Band gap at the HSE06 level (eV):  3.89820E+00
# Atomization energy (eV/atom):     -6.48449E+00
# Volume of the unit cell (A^3):     3.51153E+02
