# generated using pymatgen
data_Sn3H8C16O9
_symmetry_space_group_name_H-M   'P 1'
_cell_length_a   6.69907182
_cell_length_b   7.01986404
_cell_length_c   19.12884994
_cell_angle_alpha   83.15943391
_cell_angle_beta   86.62493081
_cell_angle_gamma   61.42020653
_symmetry_Int_Tables_number   1
_chemical_formula_structural   Sn3H8C16O9
_chemical_formula_sum   'Sn6 H16 C32 O18'
_cell_volume   784.328732211
_cell_formula_units_Z   2
loop_
 _symmetry_equiv_pos_site_id
 _symmetry_equiv_pos_as_xyz
  1  'x, y, z'
loop_
 _atom_site_type_symbol
 _atom_site_label
 _atom_site_symmetry_multiplicity
 _atom_site_fract_x
 _atom_site_fract_y
 _atom_site_fract_z
 _atom_site_occupancy
  C  C1  1  0.308496  0.381163  0.114463  1
  C  C2  1  0.691504  0.618837  0.885537  1
  C  C3  1  0.145851  0.445827  0.056351  1
  C  C4  1  0.854149  0.554173  0.943649  1
  C  C5  1  0.174895  0.556048  0.993831  1
  C  C6  1  0.825105  0.443952  0.006169  1
  C  C7  1  0.029775  0.610067  0.937464  1
  C  C8  1  0.970225  0.389933  0.062536  1
  C  C9  1  0.401676  0.991240  0.356508  1
  C  C10  1  0.598324  0.008760  0.643492  1
  C  C11  1  0.456347  0.993471  0.430237  1
  C  C12  1  0.543653  0.006529  0.569763  1
  C  C13  1  0.519832  0.807283  0.478560  1
  C  C14  1  0.480168  0.192717  0.521440  1
  C  C15  1  0.956211  0.785595  0.387166  1
  C  C16  1  0.043789  0.214405  0.612834  1
  C  C17  1  0.982211  0.896514  0.444531  1
  C  C18  1  0.017789  0.103486  0.555469  1
  C  C19  1  0.056456  0.779243  0.510860  1
  C  C20  1  0.943544  0.220757  0.489140  1
  C  C21  1  0.074270  0.882290  0.566030  1
  C  C22  1  0.925730  0.117710  0.433970  1
  C  C23  1  0.658087  0.822022  0.142950  1
  C  C24  1  0.341913  0.177978  0.857050  1
  C  C25  1  0.576953  0.912815  0.069213  1
  C  C26  1  0.423047  0.087185  0.930787  1
  C  C27  1  0.686566  0.009538  0.025321  1
  C  C28  1  0.313434  0.990462  0.974679  1
  C  C29  1  0.562011  0.814197  0.548086  1
  C  C30  1  0.437989  0.185803  0.451914  1
  C  C31  1  0.610357  0.095883  0.956860  1
  C  C32  1  0.389643  0.904117  0.043140  1
  H  H33  1  0.313548  0.593739  0.988896  1
  H  H34  1  0.686452  0.406261  0.011104  1
  H  H35  1  0.051619  0.695377  0.889010  1
  H  H36  1  0.948381  0.304623  0.110990  1
  H  H37  1  0.531829  0.660785  0.461160  1
  H  H38  1  0.468171  0.339215  0.538840  1
  H  H39  1  0.094629  0.610401  0.519113  1
  H  H40  1  0.905371  0.389599  0.480887  1
  H  H41  1  0.134665  0.791442  0.617161  1
  H  H42  1  0.865335  0.208558  0.382839  1
  H  H43  1  0.830641  0.016250  0.045559  1
  H  H44  1  0.169359  0.983750  0.954441  1
  H  H45  1  0.611341  0.671765  0.585736  1
  H  H46  1  0.388659  0.328235  0.414264  1
  H  H47  1  0.691589  0.175216  0.923850  1
  H  H48  1  0.308411  0.824784  0.076150  1
  O  O49  1  0.879393  0.893238  0.326105  1
  O  O50  1  0.120607  0.106762  0.673895  1
  O  O51  1  0.008623  0.584116  0.398017  1
  O  O52  1  0.991377  0.415884  0.601983  1
  O  O53  1  0.832538  0.823948  0.165678  1
  O  O54  1  0.167462  0.176052  0.834322  1
  O  O55  1  0.407323  0.818925  0.337161  1
  O  O56  1  0.592677  0.181075  0.662839  1
  O  O57  1  0.340949  0.165691  0.313656  1
  O  O58  1  0.659051  0.834309  0.686344  1
  O  O59  1  0.291673  0.265339  0.170525  1
  O  O60  1  0.708327  0.734661  0.829475  1
  O  O61  1  0.463285  0.438409  0.110635  1
  O  O62  1  0.536715  0.561591  0.889365  1
  O  O63  1  0.549339  0.738717  0.182827  1
  O  O64  1  0.450661  0.261283  0.817173  1
  O  O65  1  0.254087  0.584883  0.255667  1
  O  O66  1  0.745913  0.415117  0.744333  1
  Sn  Sn67  1  0.196791  0.910029  0.232954  1
  Sn  Sn68  1  0.803209  0.089971  0.767046  1
  Sn  Sn69  1  0.959758  0.543455  0.277997  1
  Sn  Sn70  1  0.040242  0.456545  0.722003  1
  Sn  Sn71  1  0.558551  0.303654  0.234925  1
  Sn  Sn72  1  0.441449  0.696346  0.765075  1
 
# Source:                            Grazulis_etal:NucleicAcidsRes.40.D420(2012)                                     
# Class:                             organometallic_Sn_molec_crystal                                                 
# Label:                             COD-4501866                                                                     
# Structure prediction method used:  NA                                                                              
# Number of atoms:                    72
# Number of atom types:                4
# Atom types:                         C  H  O Sn
# Dielectric constant, electronic:   4.04671E+00
# Dielectric constant, ionic:        4.08513E+00
# Dielectric constant, total:        8.13184E+00
# Band gap at the GGA level (eV):    2.12470E+00
# Band gap at the HSE06 level (eV):  3.04680E+00
# Atomization energy (eV/atom):     -6.43712E+00
# Volume of the unit cell (A^3):     7.84329E+02
