# generated using pymatgen
data_SnH14(C5O)2
_symmetry_space_group_name_H-M   'P 1'
_cell_length_a   9.75990610
_cell_length_b   8.56402925
_cell_length_c   11.82947783
_cell_angle_alpha   90.00000000
_cell_angle_beta   102.48453104
_cell_angle_gamma   90.00000000
_symmetry_Int_Tables_number   1
_chemical_formula_structural   SnH14(C5O)2
_chemical_formula_sum   'Sn4 H56 C40 O8'
_cell_volume   965.376775466
_cell_formula_units_Z   4
loop_
 _symmetry_equiv_pos_site_id
 _symmetry_equiv_pos_as_xyz
  1  'x, y, z'
loop_
 _atom_site_type_symbol
 _atom_site_label
 _atom_site_symmetry_multiplicity
 _atom_site_fract_x
 _atom_site_fract_y
 _atom_site_fract_z
 _atom_site_occupancy
  C  C1  1  0.455376  0.310915  0.473074  1
  C  C2  1  0.544624  0.689085  0.526926  1
  C  C3  1  0.544624  0.810915  0.026926  1
  C  C4  1  0.455376  0.189085  0.973074  1
  C  C5  1  0.825820  0.401690  0.529908  1
  C  C6  1  0.174180  0.598310  0.470092  1
  C  C7  1  0.174180  0.901690  0.970092  1
  C  C8  1  0.825820  0.098310  0.029908  1
  C  C9  1  0.648697  0.121471  0.290826  1
  C  C10  1  0.351303  0.878529  0.709174  1
  C  C11  1  0.351303  0.621471  0.209174  1
  C  C12  1  0.648697  0.378529  0.790826  1
  C  C13  1  0.726121  0.980560  0.665429  1
  C  C14  1  0.273879  0.019440  0.334571  1
  C  C15  1  0.273879  0.480560  0.834571  1
  C  C16  1  0.726121  0.519440  0.165429  1
  C  C17  1  0.835281  0.943853  0.600647  1
  C  C18  1  0.164719  0.056147  0.399353  1
  C  C19  1  0.164719  0.443853  0.899353  1
  C  C20  1  0.835281  0.556147  0.100647  1
  C  C21  1  0.935317  0.822349  0.625528  1
  C  C22  1  0.064683  0.177651  0.374472  1
  C  C23  1  0.064683  0.322349  0.874472  1
  C  C24  1  0.935317  0.677651  0.125528  1
  C  C25  1  0.955627  0.708746  0.711354  1
  C  C26  1  0.044373  0.291254  0.288646  1
  C  C27  1  0.044373  0.208746  0.788646  1
  C  C28  1  0.955627  0.791254  0.211354  1
  C  C29  1  0.886605  0.687834  0.802007  1
  C  C30  1  0.113395  0.312166  0.197993  1
  C  C31  1  0.113395  0.187834  0.697993  1
  C  C32  1  0.886605  0.812166  0.302007  1
  C  C33  1  0.780261  0.780753  0.827779  1
  C  C34  1  0.219739  0.219247  0.172221  1
  C  C35  1  0.219739  0.280753  0.672221  1
  C  C36  1  0.780261  0.719247  0.327779  1
  C  C37  1  0.711514  0.909371  0.769307  1
  C  C38  1  0.288486  0.090629  0.230693  1
  C  C39  1  0.288486  0.409371  0.730693  1
  C  C40  1  0.711514  0.590629  0.269307  1
  H  H41  1  0.395941  0.209150  0.489439  1
  H  H42  1  0.604059  0.790850  0.510561  1
  H  H43  1  0.604059  0.709150  0.010561  1
  H  H44  1  0.395941  0.290850  0.989439  1
  H  H45  1  0.402896  0.368028  0.392810  1
  H  H46  1  0.597104  0.631972  0.607190  1
  H  H47  1  0.597104  0.868028  0.107190  1
  H  H48  1  0.402896  0.131972  0.892810  1
  H  H49  1  0.466168  0.391600  0.545491  1
  H  H50  1  0.533832  0.608400  0.454509  1
  H  H51  1  0.533832  0.891600  0.954509  1
  H  H52  1  0.466168  0.108400  0.045491  1
  H  H53  1  0.873456  0.370825  0.619171  1
  H  H54  1  0.126544  0.629175  0.380829  1
  H  H55  1  0.126544  0.870825  0.880829  1
  H  H56  1  0.873456  0.129175  0.119171  1
  H  H57  1  0.776442  0.515860  0.528069  1
  H  H58  1  0.223558  0.484140  0.471931  1
  H  H59  1  0.223558  0.015860  0.971931  1
  H  H60  1  0.776442  0.984140  0.028069  1
  H  H61  1  0.906923  0.404693  0.479340  1
  H  H62  1  0.093077  0.595307  0.520660  1
  H  H63  1  0.093077  0.904693  0.020660  1
  H  H64  1  0.906923  0.095307  0.979340  1
  H  H65  1  0.752422  0.116047  0.270570  1
  H  H66  1  0.247578  0.883953  0.729430  1
  H  H67  1  0.247578  0.616047  0.229430  1
  H  H68  1  0.752422  0.383953  0.770570  1
  H  H69  1  0.578784  0.193015  0.227366  1
  H  H70  1  0.421216  0.806985  0.772634  1
  H  H71  1  0.421216  0.693015  0.272634  1
  H  H72  1  0.578784  0.306985  0.727366  1
  H  H73  1  0.606977  0.003521  0.293678  1
  H  H74  1  0.393023  0.996479  0.706322  1
  H  H75  1  0.393023  0.503521  0.206322  1
  H  H76  1  0.606977  0.496479  0.793678  1
  H  H77  1  0.003406  0.818093  0.564347  1
  H  H78  1  0.996594  0.181907  0.435653  1
  H  H79  1  0.996594  0.318093  0.935653  1
  H  H80  1  0.003406  0.681907  0.064347  1
  H  H81  1  0.037645  0.624412  0.706809  1
  H  H82  1  0.962355  0.375588  0.293191  1
  H  H83  1  0.962355  0.124412  0.793191  1
  H  H84  1  0.037645  0.875588  0.206809  1
  H  H85  1  0.919284  0.590892  0.860153  1
  H  H86  1  0.080716  0.409108  0.139847  1
  H  H87  1  0.080716  0.090892  0.639847  1
  H  H88  1  0.919284  0.909108  0.360153  1
  H  H89  1  0.743467  0.746537  0.904316  1
  H  H90  1  0.256533  0.253463  0.095684  1
  H  H91  1  0.256533  0.246537  0.595684  1
  H  H92  1  0.743467  0.753463  0.404316  1
  H  H93  1  0.628407  0.960000  0.805440  1
  H  H94  1  0.371593  0.040000  0.194560  1
  H  H95  1  0.371593  0.460000  0.694560  1
  H  H96  1  0.628407  0.540000  0.305440  1
  O  O97  1  0.636514  0.089379  0.620665  1
  O  O98  1  0.363486  0.910621  0.379335  1
  O  O99  1  0.363486  0.589379  0.879335  1
  O  O100  1  0.636514  0.410621  0.120665  1
  O  O101  1  0.835039  0.031160  0.510839  1
  O  O102  1  0.164961  0.968840  0.489161  1
  O  O103  1  0.164961  0.531160  0.989161  1
  O  O104  1  0.835039  0.468840  0.010839  1
  Sn  Sn105  1  0.665498  0.224297  0.463546  1
  Sn  Sn106  1  0.334502  0.775703  0.536454  1
  Sn  Sn107  1  0.334502  0.724297  0.036454  1
  Sn  Sn108  1  0.665498  0.275703  0.963546  1
 
# Source:                            Grazulis_etal:NucleicAcidsRes.40.D420(2012)                                     
# Class:                             organometallic_Sn_molec_crystal                                                 
# Label:                             COD-7004926                                                                     
# Structure prediction method used:  NA                                                                              
# Number of atoms:                   108
# Number of atom types:                4
# Atom types:                         C  H  O Sn
# Dielectric constant, electronic:   3.32589E+00
# Dielectric constant, ionic:        1.38339E+00
# Dielectric constant, total:        4.70928E+00
# Band gap at the GGA level (eV):    2.30030E+00
# Band gap at the HSE06 level (eV):  3.17160E+00
# Atomization energy (eV/atom):     -5.44824E+00
# Volume of the unit cell (A^3):     9.65377E+02
