# generated using pymatgen
data_SnH26(C10O)2
_symmetry_space_group_name_H-M   'P 1'
_cell_length_a   9.17535578
_cell_length_b   9.02676743
_cell_length_c   11.00932591
_cell_angle_alpha   70.78005682
_cell_angle_beta   72.64719549
_cell_angle_gamma   85.43239168
_symmetry_Int_Tables_number   1
_chemical_formula_structural   SnH26(C10O)2
_chemical_formula_sum   'Sn2 H52 C40 O4'
_cell_volume   821.648481103
_cell_formula_units_Z   2
loop_
 _symmetry_equiv_pos_site_id
 _symmetry_equiv_pos_as_xyz
  1  'x, y, z'
loop_
 _atom_site_type_symbol
 _atom_site_label
 _atom_site_symmetry_multiplicity
 _atom_site_fract_x
 _atom_site_fract_y
 _atom_site_fract_z
 _atom_site_occupancy
  C  C1  1  0.847711  0.402970  0.171497  1
  C  C2  1  0.152289  0.597030  0.828503  1
  C  C3  1  0.892283  0.550210  0.169176  1
  C  C4  1  0.107717  0.449790  0.830824  1
  C  C5  1  0.981582  0.562997  0.247915  1
  C  C6  1  0.018418  0.437003  0.752085  1
  C  C7  1  0.029347  0.428257  0.332193  1
  C  C8  1  0.970653  0.571743  0.667807  1
  C  C9  1  0.987875  0.281601  0.333446  1
  C  C10  1  0.012125  0.718399  0.666554  1
  C  C11  1  0.898884  0.263662  0.254928  1
  C  C12  1  0.101116  0.736338  0.745072  1
  C  C13  1  0.859653  0.100032  0.257110  1
  C  C14  1  0.140347  0.899968  0.742890  1
  C  C15  1  0.933064  0.082277  0.116456  1
  C  C16  1  0.066936  0.917723  0.883544  1
  C  C17  1  0.685302  0.074349  0.294498  1
  C  C18  1  0.314698  0.925651  0.705502  1
  C  C19  1  0.917374  0.967767  0.361503  1
  C  C20  1  0.082626  0.032233  0.638497  1
  C  C21  1  0.583331  0.476403  0.761204  1
  C  C22  1  0.416669  0.523597  0.238796  1
  C  C23  1  0.575589  0.636938  0.694774  1
  C  C24  1  0.424411  0.363062  0.305226  1
  C  C25  1  0.617220  0.696710  0.555313  1
  C  C26  1  0.382780  0.303290  0.444687  1
  C  C27  1  0.665977  0.594365  0.481159  1
  C  C28  1  0.334023  0.405635  0.518841  1
  C  C29  1  0.667935  0.433108  0.547491  1
  C  C30  1  0.332065  0.566892  0.452509  1
  C  C31  1  0.625177  0.368506  0.688482  1
  C  C32  1  0.374823  0.631494  0.311518  1
  C  C33  1  0.618932  0.189674  0.759510  1
  C  C34  1  0.381068  0.810326  0.240490  1
  C  C35  1  0.455546  0.138234  0.854037  1
  C  C36  1  0.544454  0.861766  0.145963  1
  C  C37  1  0.733263  0.141404  0.843896  1
  C  C38  1  0.266737  0.858596  0.156104  1
  C  C39  1  0.660413  0.098438  0.657098  1
  C  C40  1  0.339587  0.901562  0.342902  1
  H  H41  1  0.855351  0.656921  0.105316  1
  H  H42  1  0.144649  0.343079  0.894684  1
  H  H43  1  0.009773  0.678018  0.245569  1
  H  H44  1  0.990227  0.321982  0.754431  1
  H  H45  1  0.094764  0.436089  0.397269  1
  H  H46  1  0.905236  0.563911  0.602731  1
  H  H47  1  0.027326  0.178657  0.398206  1
  H  H48  1  0.972674  0.821343  0.601794  1
  H  H49  1  0.057473  0.095744  0.086994  1
  H  H50  1  0.942527  0.904256  0.913006  1
  H  H51  1  0.889874  0.169378  0.040423  1
  H  H52  1  0.110126  0.830622  0.959577  1
  H  H53  1  0.906457  0.965192  0.118174  1
  H  H54  1  0.093543  0.034808  0.881826  1
  H  H55  1  0.662175  0.952697  0.307672  1
  H  H56  1  0.337825  0.047303  0.692328  1
  H  H57  1  0.639359  0.149319  0.215320  1
  H  H58  1  0.360641  0.850681  0.784680  1
  H  H59  1  0.626729  0.098040  0.388317  1
  H  H60  1  0.373271  0.901960  0.611683  1
  H  H61  1  0.039940  0.977699  0.344363  1
  H  H62  1  0.960060  0.022301  0.655637  1
  H  H63  1  0.893558  0.853604  0.355982  1
  H  H64  1  0.106442  0.146396  0.644018  1
  H  H65  1  0.858832  0.968093  0.463727  1
  H  H66  1  0.141168  0.031907  0.536273  1
  H  H67  1  0.535662  0.714891  0.753712  1
  H  H68  1  0.464338  0.285109  0.246288  1
  H  H69  1  0.611216  0.821447  0.507016  1
  H  H70  1  0.388784  0.178553  0.492984  1
  H  H71  1  0.698376  0.637029  0.372490  1
  H  H72  1  0.301624  0.362971  0.627510  1
  H  H73  1  0.701876  0.357034  0.486198  1
  H  H74  1  0.298124  0.642966  0.513802  1
  H  H75  1  0.442013  0.010620  0.887344  1
  H  H76  1  0.557987  0.989380  0.112656  1
  H  H77  1  0.368060  0.189786  0.804143  1
  H  H78  1  0.631940  0.810214  0.195857  1
  H  H79  1  0.434523  0.172967  0.943696  1
  H  H80  1  0.565477  0.827033  0.056304  1
  H  H81  1  0.727242  0.014212  0.892609  1
  H  H82  1  0.272758  0.985788  0.107391  1
  H  H83  1  0.710259  0.198012  0.921172  1
  H  H84  1  0.289741  0.801988  0.078828  1
  H  H85  1  0.849196  0.171916  0.778885  1
  H  H86  1  0.150804  0.828084  0.221115  1
  H  H87  1  0.775476  0.129844  0.589050  1
  H  H88  1  0.224524  0.870156  0.410950  1
  H  H89  1  0.581648  0.121232  0.596032  1
  H  H90  1  0.418352  0.878768  0.403968  1
  H  H91  1  0.656539  0.971955  0.710944  1
  H  H92  1  0.343461  0.028045  0.289056  1
  O  O93  1  0.756740  0.392123  0.096763  1
  O  O94  1  0.243260  0.607877  0.903237  1
  O  O95  1  0.555127  0.429503  0.901351  1
  O  O96  1  0.444873  0.570497  0.098649  1
  Sn  Sn97  1  0.692036  0.586708  0.952451  1
  Sn  Sn98  1  0.307964  0.413292  0.047549  1
 
# Source:                            Grazulis_etal:NucleicAcidsRes.40.D420(2012)                                     
# Class:                             organometallic_Sn_molec_crystal                                                 
# Label:                             COD-7019852                                                                     
# Structure prediction method used:  NA                                                                              
# Number of atoms:                    98
# Number of atom types:                4
# Atom types:                         C  H  O Sn
# Dielectric constant, electronic:   3.13763E+00
# Dielectric constant, ionic:        1.35667E+00
# Dielectric constant, total:        4.49430E+00
# Band gap at the GGA level (eV):    2.60810E+00
# Band gap at the HSE06 level (eV):  3.58850E+00
# Atomization energy (eV/atom):     -5.59265E+00
# Volume of the unit cell (A^3):     8.21648E+02
