# generated using pymatgen
data_SnH26(C8O)3
_symmetry_space_group_name_H-M   'P 1'
_cell_length_a   8.87140864
_cell_length_b   9.16820338
_cell_length_c   12.20892708
_cell_angle_alpha   80.47305702
_cell_angle_beta   86.11369984
_cell_angle_gamma   78.86323219
_symmetry_Int_Tables_number   1
_chemical_formula_structural   SnH26(C8O)3
_chemical_formula_sum   'Sn2 H52 C48 O6'
_cell_volume   960.216146551
_cell_formula_units_Z   2
loop_
 _symmetry_equiv_pos_site_id
 _symmetry_equiv_pos_as_xyz
  1  'x, y, z'
loop_
 _atom_site_type_symbol
 _atom_site_label
 _atom_site_symmetry_multiplicity
 _atom_site_fract_x
 _atom_site_fract_y
 _atom_site_fract_z
 _atom_site_occupancy
  C  C1  1  0.234360  0.334991  0.071717  1
  C  C2  1  0.765640  0.665009  0.928283  1
  C  C3  1  0.375045  0.219665  0.117192  1
  C  C4  1  0.624955  0.780335  0.882808  1
  C  C5  1  0.631646  0.082284  0.090546  1
  C  C6  1  0.368354  0.917716  0.909454  1
  C  C7  1  0.768088  0.099306  0.011393  1
  C  C8  1  0.231912  0.900694  0.988607  1
  C  C9  1  0.166325  0.289812  0.972067  1
  C  C10  1  0.833675  0.710188  0.027933  1
  C  C11  1  0.288753  0.486115  0.033423  1
  C  C12  1  0.711247  0.513885  0.966577  1
  C  C13  1  0.209576  0.213367  0.451885  1
  C  C14  1  0.790424  0.786633  0.548115  1
  C  C15  1  0.297883  0.081241  0.506861  1
  C  C16  1  0.702117  0.918759  0.493139  1
  C  C17  1  0.360668  0.078288  0.609353  1
  C  C18  1  0.639332  0.921712  0.390647  1
  C  C19  1  0.336303  0.209691  0.657064  1
  C  C20  1  0.663697  0.790309  0.342936  1
  C  C21  1  0.249741  0.342561  0.602713  1
  C  C22  1  0.750259  0.657439  0.397287  1
  C  C23  1  0.185262  0.344493  0.500976  1
  C  C24  1  0.814738  0.655507  0.499024  1
  C  C25  1  0.135252  0.963641  0.272863  1
  C  C26  1  0.864748  0.036359  0.727137  1
  C  C27  1  0.282680  0.873414  0.277212  1
  C  C28  1  0.717320  0.126586  0.722788  1
  C  C29  1  0.304507  0.721063  0.268125  1
  C  C30  1  0.695493  0.278937  0.731875  1
  C  C31  1  0.178552  0.655906  0.254609  1
  C  C32  1  0.821448  0.344094  0.745391  1
  C  C33  1  0.032044  0.745058  0.246860  1
  C  C34  1  0.967956  0.254942  0.753140  1
  C  C35  1  0.009734  0.897753  0.257167  1
  C  C36  1  0.990266  0.102247  0.742833  1
  C  C37  1  0.856331  0.278379  0.330078  1
  C  C38  1  0.143669  0.721621  0.669922  1
  C  C39  1  0.789858  0.271380  0.438046  1
  C  C40  1  0.210142  0.728620  0.561954  1
  C  C41  1  0.631513  0.320434  0.454444  1
  C  C42  1  0.368487  0.679566  0.545556  1
  C  C43  1  0.538794  0.376538  0.363436  1
  C  C44  1  0.461206  0.623462  0.636564  1
  C  C45  1  0.604507  0.385776  0.255803  1
  C  C46  1  0.395493  0.614224  0.744197  1
  C  C47  1  0.762296  0.336743  0.239238  1
  C  C48  1  0.237704  0.663257  0.760762  1
  H  H49  1  0.602233  0.970373  0.100599  1
  H  H50  1  0.397767  0.029627  0.899401  1
  H  H51  1  0.648221  0.110054  0.171545  1
  H  H52  1  0.351779  0.889946  0.828455  1
  H  H53  1  0.871735  0.032352  0.050936  1
  H  H54  1  0.128265  0.967648  0.949064  1
  H  H55  1  0.782988  0.216170  0.993613  1
  H  H56  1  0.217012  0.783830  0.006387  1
  H  H57  1  0.756476  0.061220  0.932996  1
  H  H58  1  0.243524  0.938780  0.067004  1
  H  H59  1  0.254145  0.266513  0.906508  1
  H  H60  1  0.745855  0.733487  0.093492  1
  H  H61  1  0.077933  0.383842  0.937711  1
  H  H62  1  0.922067  0.616158  0.062289  1
  H  H63  1  0.113072  0.191292  0.998525  1
  H  H64  1  0.886928  0.808708  0.001475  1
  H  H65  1  0.368049  0.478181  0.961539  1
  H  H66  1  0.631951  0.521819  0.038461  1
  H  H67  1  0.344873  0.520690  0.098898  1
  H  H68  1  0.655127  0.479310  0.901102  1
  H  H69  1  0.186731  0.570978  0.011093  1
  H  H70  1  0.813269  0.429022  0.988907  1
  H  H71  1  0.318417  0.978685  0.470855  1
  H  H72  1  0.681583  0.021315  0.529145  1
  H  H73  1  0.427893  0.974402  0.650281  1
  H  H74  1  0.572107  0.025598  0.349719  1
  H  H75  1  0.382739  0.209316  0.737250  1
  H  H76  1  0.617261  0.790684  0.262750  1
  H  H77  1  0.229515  0.443177  0.640882  1
  H  H78  1  0.770485  0.556823  0.359118  1
  H  H79  1  0.117168  0.448765  0.460598  1
  H  H80  1  0.882832  0.551235  0.539402  1
  H  H81  1  0.381002  0.921790  0.288273  1
  H  H82  1  0.618998  0.078210  0.711727  1
  H  H83  1  0.419417  0.654033  0.272348  1
  H  H84  1  0.580583  0.345967  0.727652  1
  H  H85  1  0.192226  0.537649  0.248136  1
  H  H86  1  0.807774  0.462351  0.751864  1
  H  H87  1  0.935698  0.694439  0.234305  1
  H  H88  1  0.064302  0.305561  0.765695  1
  H  H89  1  0.894048  0.963750  0.255280  1
  H  H90  1  0.105952  0.036250  0.744720  1
  H  H91  1  0.860728  0.228909  0.509864  1
  H  H92  1  0.139272  0.771091  0.490136  1
  H  H93  1  0.580116  0.316083  0.537481  1
  H  H94  1  0.419884  0.683917  0.462519  1
  H  H95  1  0.416511  0.413331  0.376940  1
  H  H96  1  0.583489  0.586669  0.623060  1
  H  H97  1  0.532802  0.430615  0.185190  1
  H  H98  1  0.467198  0.569385  0.814810  1
  H  H99  1  0.813702  0.344732  0.156034  1
  H  H100  1  0.186298  0.655268  0.843966  1
  O  O101  1  0.492598  0.190598  0.042899  1
  O  O102  1  0.507402  0.809402  0.957101  1
  O  O103  1  0.117662  0.353822  0.157765  1
  O  O104  1  0.882338  0.646178  0.842235  1
  O  O105  1  0.382097  0.163069  0.216205  1
  O  O106  1  0.617903  0.836931  0.783795  1
  Sn  Sn107  1  0.100405  0.196912  0.301380  1
  Sn  Sn108  1  0.899595  0.803088  0.698620  1
 
# Source:                            Grazulis_etal:NucleicAcidsRes.40.D420(2012)                                     
# Class:                             organometallic_Sn_molec_crystal                                                 
# Label:                             COD-7050141                                                                     
# Structure prediction method used:  NA                                                                              
# Number of atoms:                   108
# Number of atom types:                4
# Atom types:                         C  H  O Sn
# Dielectric constant, electronic:   3.02945E+00
# Dielectric constant, ionic:        6.25735E-01
# Dielectric constant, total:        3.65518E+00
# Band gap at the GGA level (eV):    3.81430E+00
# Band gap at the HSE06 level (eV):  4.83010E+00
# Atomization energy (eV/atom):     -5.76232E+00
# Volume of the unit cell (A^3):     9.60216E+02
