# generated using pymatgen
data_SnH16C8O5
_symmetry_space_group_name_H-M   'P 1'
_cell_length_a   8.71140150
_cell_length_b   8.71140150
_cell_length_c   11.79126917
_cell_angle_alpha   118.52531478
_cell_angle_beta   118.52531478
_cell_angle_gamma   41.55196677
_symmetry_Int_Tables_number   1
_chemical_formula_structural   SnH16C8O5
_chemical_formula_sum   'Sn2 H32 C16 O10'
_cell_volume   510.275712763
_cell_formula_units_Z   2
loop_
 _symmetry_equiv_pos_site_id
 _symmetry_equiv_pos_as_xyz
  1  'x, y, z'
loop_
 _atom_site_type_symbol
 _atom_site_label
 _atom_site_symmetry_multiplicity
 _atom_site_fract_x
 _atom_site_fract_y
 _atom_site_fract_z
 _atom_site_occupancy
  Sn  Sn1  1  0.358485  0.641515  0.250000  1
  Sn  Sn2  1  0.641515  0.358485  0.750000  1
  C  C3  1  0.224800  0.464759  0.146609  1
  C  C4  1  0.775200  0.535241  0.853391  1
  C  C5  1  0.535241  0.775200  0.353391  1
  C  C6  1  0.464759  0.224800  0.646609  1
  C  C7  1  0.372241  0.236622  0.187858  1
  C  C8  1  0.627759  0.763378  0.812142  1
  C  C9  1  0.763378  0.627759  0.312142  1
  C  C10  1  0.236622  0.372241  0.687858  1
  C  C11  1  0.275781  0.115472  0.101354  1
  C  C12  1  0.724219  0.884528  0.898646  1
  C  C13  1  0.884528  0.724219  0.398646  1
  C  C14  1  0.115472  0.275781  0.601354  1
  C  C15  1  0.622289  0.379424  0.484091  1
  C  C16  1  0.377711  0.620576  0.515909  1
  C  C17  1  0.620576  0.377711  0.015909  1
  C  C18  1  0.379424  0.622289  0.984091  1
  H  H19  1  0.043217  0.597505  0.161069  1
  H  H20  1  0.956783  0.402495  0.838931  1
  H  H21  1  0.402495  0.956783  0.338931  1
  H  H22  1  0.597505  0.043217  0.661069  1
  H  H23  1  0.217047  0.429717  0.042504  1
  H  H24  1  0.782953  0.570283  0.957496  1
  H  H25  1  0.570283  0.782953  0.457496  1
  H  H26  1  0.429717  0.217047  0.542504  1
  H  H27  1  0.373378  0.273703  0.291239  1
  H  H28  1  0.626622  0.726297  0.708761  1
  H  H29  1  0.726297  0.626622  0.208761  1
  H  H30  1  0.273703  0.373378  0.791239  1
  H  H31  1  0.557343  0.114339  0.182233  1
  H  H32  1  0.442657  0.885661  0.817767  1
  H  H33  1  0.885661  0.442657  0.317767  1
  H  H34  1  0.114339  0.557343  0.682233  1
  H  H35  1  0.095803  0.226279  0.110288  1
  H  H36  1  0.904197  0.773721  0.889712  1
  H  H37  1  0.773721  0.904197  0.389712  1
  H  H38  1  0.226279  0.095803  0.610288  1
  H  H39  1  0.386583  0.950438  0.129965  1
  H  H40  1  0.613417  0.049562  0.870035  1
  H  H41  1  0.049562  0.613417  0.370035  1
  H  H42  1  0.950438  0.386583  0.629965  1
  H  H43  1  0.272215  0.074805  0.997217  1
  H  H44  1  0.727785  0.925195  0.002783  1
  H  H45  1  0.925195  0.727785  0.502783  1
  H  H46  1  0.074805  0.272215  0.497217  1
  H  H47  1  0.910855  0.097488  0.320431  1
  H  H48  1  0.089145  0.902512  0.679569  1
  H  H49  1  0.902512  0.089145  0.179569  1
  H  H50  1  0.097488  0.910855  0.820431  1
  O  O51  1  0.673607  0.347258  0.385812  1
  O  O52  1  0.326393  0.652742  0.614188  1
  O  O53  1  0.652742  0.326393  0.114188  1
  O  O54  1  0.347258  0.673607  0.885812  1
  O  O55  1  0.754489  0.232450  0.556652  1
  O  O56  1  0.245511  0.767550  0.443348  1
  O  O57  1  0.767550  0.245511  0.943348  1
  O  O58  1  0.232450  0.754489  0.056652  1
  O  O59  1  0.001937  0.998063  0.250000  1
  O  O60  1  0.998063  0.001937  0.750000  1
 
# Source:                            Grazulis_etal:NucleicAcidsRes.40.D420(2012)                                     
# Class:                             organometallic_Sn_molec_crystal                                                 
# Label:                             COD-2239799                                                                     
# Structure prediction method used:  NA                                                                              
# Number of atoms:                    60
# Number of atom types:                4
# Atom types:                        Sn  C  H  O
# Dielectric constant, electronic:   2.81112E+00
# Dielectric constant, ionic:        2.68085E+00
# Dielectric constant, total:        5.49196E+00
# Band gap at the GGA level (eV):    3.10610E+00
# Band gap at the HSE06 level (eV):  4.67970E+00
# Atomization energy (eV/atom):     -5.30949E+00
# Volume of the unit cell (A^3):     5.10276E+02
