# generated using pymatgen
data_SnH12(C2O)2
_symmetry_space_group_name_H-M   'P 1'
_cell_length_a   7.99022011
_cell_length_b   6.92765897
_cell_length_c   10.78789916
_cell_angle_alpha   89.99789274
_cell_angle_beta   85.76555030
_cell_angle_gamma   89.99736999
_symmetry_Int_Tables_number   1
_chemical_formula_structural   SnH12(C2O)2
_chemical_formula_sum   'Sn4 H48 C16 O8'
_cell_volume   595.518132772
_cell_formula_units_Z   4
loop_
 _symmetry_equiv_pos_site_id
 _symmetry_equiv_pos_as_xyz
  1  'x, y, z'
loop_
 _atom_site_type_symbol
 _atom_site_label
 _atom_site_symmetry_multiplicity
 _atom_site_fract_x
 _atom_site_fract_y
 _atom_site_fract_z
 _atom_site_occupancy
  Sn  Sn1  1  0.633722  0.916909  0.864591  1
  Sn  Sn2  1  0.366278  0.083091  0.135409  1
  Sn  Sn3  1  0.866274  0.416864  0.635362  1
  Sn  Sn4  1  0.133726  0.583136  0.364638  1
  O  O5  1  0.586782  0.166910  0.982679  1
  O  O6  1  0.413218  0.833090  0.017321  1
  O  O7  1  0.913227  0.666908  0.517319  1
  O  O8  1  0.086773  0.333092  0.482681  1
  O  O9  1  0.824914  0.082793  0.755114  1
  O  O10  1  0.175086  0.917207  0.244886  1
  O  O11  1  0.675081  0.582762  0.744840  1
  O  O12  1  0.324919  0.417238  0.255160  1
  C  C13  1  0.437535  0.970725  0.739766  1
  C  C14  1  0.562465  0.029275  0.260234  1
  C  C15  1  0.062445  0.470703  0.760213  1
  C  C16  1  0.937555  0.529297  0.239787  1
  C  C17  1  0.800037  0.782107  0.990402  1
  C  C18  1  0.199963  0.217893  0.009598  1
  C  C19  1  0.699948  0.282106  0.509570  1
  C  C20  1  0.300052  0.717894  0.490430  1
  C  C21  1  0.729044  0.290480  0.999832  1
  C  C22  1  0.270956  0.709520  0.000168  1
  C  C23  1  0.770970  0.790498  0.500162  1
  C  C24  1  0.229030  0.209502  0.499838  1
  C  C25  1  0.989522  0.995955  0.746484  1
  C  C26  1  0.010478  0.004045  0.253516  1
  C  C27  1  0.510475  0.495940  0.753512  1
  C  C28  1  0.489525  0.504060  0.246488  1
  H  H29  1  0.415482  0.125448  0.745031  1
  H  H30  1  0.584518  0.874552  0.254969  1
  H  H31  1  0.084462  0.625429  0.754947  1
  H  H32  1  0.915538  0.374571  0.245053  1
  H  H33  1  0.478551  0.927340  0.645635  1
  H  H34  1  0.521449  0.072660  0.354365  1
  H  H35  1  0.021402  0.427299  0.854339  1
  H  H36  1  0.978598  0.572701  0.145661  1
  H  H37  1  0.323774  0.894343  0.772128  1
  H  H38  1  0.676226  0.105657  0.227872  1
  H  H39  1  0.176222  0.394330  0.727857  1
  H  H40  1  0.823778  0.605670  0.272143  1
  H  H41  1  0.717328  0.712616  0.061305  1
  H  H42  1  0.282672  0.287384  0.938695  1
  H  H43  1  0.782620  0.212600  0.438651  1
  H  H44  1  0.217380  0.787400  0.561349  1
  H  H45  1  0.883073  0.676942  0.943620  1
  H  H46  1  0.116927  0.323058  0.056380  1
  H  H47  1  0.616926  0.176945  0.556360  1
  H  H48  1  0.383074  0.823055  0.443640  1
  H  H49  1  0.871507  0.896362  0.031559  1
  H  H50  1  0.128493  0.103638  0.968441  1
  H  H51  1  0.628446  0.396350  0.468415  1
  H  H52  1  0.371554  0.603650  0.531585  1
  H  H53  1  0.846998  0.209252  0.992015  1
  H  H54  1  0.153002  0.790748  0.007985  1
  H  H55  1  0.653018  0.709273  0.507981  1
  H  H56  1  0.346982  0.290727  0.492019  1
  H  H57  1  0.736519  0.404104  0.929575  1
  H  H58  1  0.263481  0.595896  0.070425  1
  H  H59  1  0.763492  0.904108  0.570418  1
  H  H60  1  0.236508  0.095892  0.429582  1
  H  H61  1  0.715860  0.356704  0.091510  1
  H  H62  1  0.284140  0.643296  0.908490  1
  H  H63  1  0.784144  0.856725  0.408486  1
  H  H64  1  0.215856  0.143275  0.591514  1
  H  H65  1  0.014477  0.923251  0.656735  1
  H  H66  1  0.985523  0.076749  0.343265  1
  H  H67  1  0.485554  0.423271  0.843276  1
  H  H68  1  0.514446  0.576729  0.156724  1
  H  H69  1  0.085363  0.105596  0.757242  1
  H  H70  1  0.914637  0.894404  0.242758  1
  H  H71  1  0.414639  0.605595  0.742758  1
  H  H72  1  0.585361  0.394405  0.257242  1
  H  H73  1  0.003092  0.889664  0.820005  1
  H  H74  1  0.996908  0.110336  0.179995  1
  H  H75  1  0.496873  0.389622  0.680006  1
  H  H76  1  0.503127  0.610378  0.319994  1
 
# Source:                            Grazulis_etal:NucleicAcidsRes.40.D420(2012)                                     
# Class:                             organometallic_Sn_molec_crystal                                                 
# Label:                             COD-4116357                                                                     
# Structure prediction method used:  NA                                                                              
# Number of atoms:                    76
# Number of atom types:                4
# Atom types:                        Sn  O  C  H
# Dielectric constant, electronic:   3.06369E+00
# Dielectric constant, ionic:        8.97917E+00
# Dielectric constant, total:        1.20429E+01
# Band gap at the GGA level (eV):    3.57930E+00
# Band gap at the HSE06 level (eV):  5.09520E+00
# Atomization energy (eV/atom):     -4.78896E+00
# Volume of the unit cell (A^3):     5.95518E+02
