# generated using pymatgen
data_SnH32C15O4
_symmetry_space_group_name_H-M   'P 1'
_cell_length_a   8.10612003
_cell_length_b   10.21818930
_cell_length_c   10.18935776
_cell_angle_alpha   87.21640922
_cell_angle_beta   77.62474301
_cell_angle_gamma   82.64215800
_symmetry_Int_Tables_number   1
_chemical_formula_structural   SnH32C15O4
_chemical_formula_sum   'Sn2 H64 C30 O8'
_cell_volume   817.390698722
_cell_formula_units_Z   2
loop_
 _symmetry_equiv_pos_site_id
 _symmetry_equiv_pos_as_xyz
  1  'x, y, z'
loop_
 _atom_site_type_symbol
 _atom_site_label
 _atom_site_symmetry_multiplicity
 _atom_site_fract_x
 _atom_site_fract_y
 _atom_site_fract_z
 _atom_site_occupancy
  Sn  Sn1  1  0.713967  0.533524  0.969813  1
  Sn  Sn2  1  0.286033  0.466476  0.030187  1
  O  O3  1  0.797499  0.725314  0.872180  1
  O  O4  1  0.202501  0.274686  0.127820  1
  O  O5  1  0.030928  0.643590  0.950639  1
  O  O6  1  0.969072  0.356410  0.049361  1
  O  O7  1  0.020436  0.845544  0.853482  1
  O  O8  1  0.979564  0.154456  0.146518  1
  O  O9  1  0.470129  0.619401  0.945289  1
  O  O10  1  0.529871  0.380599  0.054711  1
  C  C11  1  0.947541  0.732405  0.894063  1
  C  C12  1  0.052459  0.267595  0.105937  1
  C  C13  1  0.921308  0.953865  0.789253  1
  C  C14  1  0.078692  0.046135  0.210747  1
  C  C15  1  0.012782  0.073508  0.796236  1
  C  C16  1  0.987218  0.926492  0.203764  1
  C  C17  1  0.918622  0.918741  0.646045  1
  C  C18  1  0.081378  0.081259  0.353955  1
  C  C19  1  0.403683  0.742849  0.883157  1
  C  C20  1  0.596317  0.257151  0.116843  1
  C  C21  1  0.484244  0.756568  0.734016  1
  C  C22  1  0.515756  0.243432  0.265984  1
  C  C23  1  0.416770  0.864016  0.960902  1
  C  C24  1  0.583230  0.135984  0.039098  1
  C  C25  1  0.709018  0.581428  0.174720  1
  C  C26  1  0.290982  0.418572  0.825280  1
  C  C27  1  0.626870  0.718495  0.220333  1
  C  C28  1  0.373130  0.281505  0.779667  1
  C  C29  1  0.643589  0.740153  0.364932  1
  C  C30  1  0.356411  0.259847  0.635068  1
  C  C31  1  0.557457  0.875287  0.414920  1
  C  C32  1  0.442543  0.124713  0.585080  1
  C  C33  1  0.820203  0.407182  0.799017  1
  C  C34  1  0.179797  0.592818  0.200983  1
  C  C35  1  0.776843  0.451487  0.664127  1
  C  C36  1  0.223157  0.548513  0.335873  1
  C  C37  1  0.846438  0.344676  0.557848  1
  C  C38  1  0.153562  0.655324  0.442152  1
  C  C39  1  0.806476  0.389195  0.421734  1
  C  C40  1  0.193524  0.610805  0.578266  1
  H  H41  1  0.792379  0.966033  0.850169  1
  H  H42  1  0.207621  0.033967  0.149831  1
  H  H43  1  0.001347  0.101812  0.900258  1
  H  H44  1  0.998653  0.898188  0.099742  1
  H  H45  1  0.959586  0.156912  0.741349  1
  H  H46  1  0.040414  0.843088  0.258651  1
  H  H47  1  0.147430  0.050607  0.749540  1
  H  H48  1  0.852570  0.949393  0.250460  1
  H  H49  1  0.046992  0.911563  0.583647  1
  H  H50  1  0.953008  0.088437  0.416353  1
  H  H51  1  0.837966  0.996368  0.603473  1
  H  H52  1  0.162034  0.003632  0.396527  1
  H  H53  1  0.867266  0.825568  0.643218  1
  H  H54  1  0.132734  0.174432  0.356782  1
  H  H55  1  0.269744  0.733910  0.891813  1
  H  H56  1  0.730256  0.266090  0.108187  1
  H  H57  1  0.612855  0.784025  0.718590  1
  H  H58  1  0.387145  0.215975  0.281410  1
  H  H59  1  0.405171  0.833126  0.688806  1
  H  H60  1  0.594829  0.166874  0.311194  1
  H  H61  1  0.489183  0.665170  0.681482  1
  H  H62  1  0.510817  0.334830  0.318518  1
  H  H63  1  0.356490  0.853562  0.067040  1
  H  H64  1  0.643510  0.146438  0.932960  1
  H  H65  1  0.350818  0.951839  0.919507  1
  H  H66  1  0.649181  0.048161  0.080493  1
  H  H67  1  0.549154  0.879315  0.953766  1
  H  H68  1  0.450846  0.120685  0.046234  1
  H  H69  1  0.641664  0.505269  0.233384  1
  H  H70  1  0.358336  0.494731  0.766616  1
  H  H71  1  0.840949  0.564643  0.183851  1
  H  H72  1  0.159051  0.435357  0.816149  1
  H  H73  1  0.491704  0.732402  0.215512  1
  H  H74  1  0.508296  0.267598  0.784488  1
  H  H75  1  0.686195  0.795318  0.154154  1
  H  H76  1  0.313805  0.204682  0.845846  1
  H  H77  1  0.588753  0.662229  0.432056  1
  H  H78  1  0.411247  0.337771  0.567944  1
  H  H79  1  0.779072  0.730197  0.368546  1
  H  H80  1  0.220928  0.269803  0.631454  1
  H  H81  1  0.590542  0.952375  0.338831  1
  H  H82  1  0.409458  0.047625  0.661169  1
  H  H83  1  0.595472  0.899965  0.505968  1
  H  H84  1  0.404528  0.100035  0.494032  1
  H  H85  1  0.418466  0.878335  0.436991  1
  H  H86  1  0.581534  0.121665  0.563009  1
  H  H87  1  0.957022  0.391305  0.792571  1
  H  H88  1  0.042978  0.608695  0.207429  1
  H  H89  1  0.769535  0.314920  0.834476  1
  H  H90  1  0.230465  0.685080  0.165524  1
  H  H91  1  0.828166  0.544400  0.628628  1
  H  H92  1  0.171834  0.455600  0.371372  1
  H  H93  1  0.638639  0.471296  0.673641  1
  H  H94  1  0.361361  0.528704  0.326359  1
  H  H95  1  0.984532  0.320737  0.548649  1
  H  H96  1  0.015468  0.679263  0.451351  1
  H  H97  1  0.790030  0.253551  0.592921  1
  H  H98  1  0.209970  0.746449  0.407079  1
  H  H99  1  0.669986  0.420584  0.433048  1
  H  H100  1  0.330014  0.579416  0.566952  1
  H  H101  1  0.841654  0.311313  0.347579  1
  H  H102  1  0.158346  0.688687  0.652421  1
  H  H103  1  0.873093  0.473658  0.381575  1
  H  H104  1  0.126907  0.526342  0.618425  1
 
# Source:                            Grazulis_etal:NucleicAcidsRes.40.D420(2012)                                     
# Class:                             organometallic_Sn_molec_crystal                                                 
# Label:                             COD-7007818                                                                     
# Structure prediction method used:  NA                                                                              
# Number of atoms:                   104
# Number of atom types:                4
# Atom types:                        Sn  O  C  H
# Dielectric constant, electronic:   2.66817E+00
# Dielectric constant, ionic:        2.33179E+00
# Dielectric constant, total:        4.99996E+00
# Band gap at the GGA level (eV):    4.47120E+00
# Band gap at the HSE06 level (eV):  6.00660E+00
# Atomization energy (eV/atom):     -5.14010E+00
# Volume of the unit cell (A^3):     8.17391E+02
